!- Linux Line endings 

VERSION,
    25.1.0;                   !- Version Identifier

SIMULATIONCONTROL,
    No,                       !- Do Zone Sizing Calculation
    No,                       !- Do System Sizing Calculation
    No,                       !- Do Plant Sizing Calculation
    Yes,                      !- Run Simulation for Sizing Periods
    Yes,                      !- Run Simulation for Weather File Run Periods
    Yes,                      !- Do HVAC Sizing Simulation for Sizing Periods
    1;                        !- Maximum Number of HVAC Sizing Simulation Passes

BUILDING,
    smalloffice_21,           !- Name
    0,                        !- North Axis
    Suburbs,                  !- Terrain
    0.04,                     !- Loads Convergence Tolerance Value
    0.4,                      !- Temperature Convergence Tolerance Value
    FullExterior,             !- Solar Distribution
    25,                       !- Maximum Number of Warmup Days
    1;                        !- Minimum Number of Warmup Days

SITE:LOCATION,
    Shenzhen_CN,              !- Name
    22.54,                    !- Latitude
    114.06,                   !- Longitude
    8,                        !- Time Zone
    18;                       !- Elevation

RUNPERIOD,
    Default Run Period,       !- Name
    1,                        !- Begin Month
    1,                        !- Begin Day of Month
    ,                         !- Begin Year
    12,                       !- End Month
    31,                       !- End Day of Month
    ,                         !- End Year
    ,                         !- Day of Week for Start Day
    Yes,                      !- Use Weather File Holidays and Special Days
    Yes,                      !- Use Weather File Daylight Saving Period
    No,                       !- Apply Weekend Holiday Rule
    Yes,                      !- Use Weather File Rain Indicators
    Yes,                      !- Use Weather File Snow Indicators
    No,                       !- Treat Weather as Actual
    Hour24;                   !- First Hour Interpolation Starting Values

SCHEDULETYPELIMITS,
    Fraction,                 !- Name
    0,                        !- Lower Limit Value
    1,                        !- Upper Limit Value
    CONTINUOUS,               !- Numeric Type
    Dimensionless;            !- Unit Type

SCHEDULETYPELIMITS,
    Temperature,              !- Name
    -100,                     !- Lower Limit Value
    100,                      !- Upper Limit Value
    CONTINUOUS,               !- Numeric Type
    Temperature;              !- Unit Type

SCHEDULETYPELIMITS,
    ActivityLevel,            !- Name
    0,                        !- Lower Limit Value
    1000,                     !- Upper Limit Value
    CONTINUOUS,               !- Numeric Type
    Dimensionless;            !- Unit Type

SCHEDULETYPELIMITS,
    OnOff,                    !- Name
    0,                        !- Lower Limit Value
    1,                        !- Upper Limit Value
    DISCRETE,                 !- Numeric Type
    Dimensionless;            !- Unit Type

SCHEDULE:COMPACT,
    Office_Workday,           !- Name
    Fraction,                 !- Schedule Type Limits Name
    Through: 12/31,           !- Field 1
    For: Weekdays,            !- Field 2
    Until: 07:00, 0.0,        !- Field 3
    Until: 09:00, 0.1,        !- Field 4
    Until: 12:00, 1.0,        !- Field 5
    Until: 13:00, 0.5,        !- Field 6
    Until: 18:00, 1.0,        !- Field 7
    Until: 20:00, 0.3,        !- Field 8
    Until: 24:00, 0.0;        !- Field 9

SCHEDULE:COMPACT,
    Office_Activity_Schedule,    !- Name
    ActivityLevel,            !- Schedule Type Limits Name
    Through: 12/31,           !- Field 1
    For: AllDays,             !- Field 2
    Until: 24:00, 131.8;      !- Field 3

SCHEDULE:COMPACT,
    Office_Weekend,           !- Name
    Fraction,                 !- Schedule Type Limits Name
    Through: 12/31,           !- Field 1
    For: Saturday,            !- Field 2
    Until: 24:00, 0.0,        !- Field 3
    For: Sunday,              !- Field 4
    Until: 24:00, 0.0,        !- Field 5
    For: Holidays,            !- Field 6
    Until: 24:00, 0.0,        !- Field 7
    For: AllOtherDays,        !- Field 8
    Until: 24:00, 0.0;        !- Field 9

SCHEDULE:COMPACT,
    Office_People_Number,     !- Name
    Fraction,                 !- Schedule Type Limits Name
    Through: 12/31,           !- Field 1
    For: Weekdays,            !- Field 2
    Until: 07:00, 0.0,        !- Field 3
    Until: 09:00, 0.2,        !- Field 4
    Until: 12:00, 1.0,        !- Field 5
    Until: 13:00, 0.5,        !- Field 6
    Until: 18:00, 1.0,        !- Field 7
    Until: 20:00, 0.2,        !- Field 8
    Until: 24:00, 0.0,        !- Field 9
    For: Saturday,            !- Field 10
    Until: 24:00, 0.0,        !- Field 11
    For: Sunday,              !- Field 12
    Until: 24:00, 0.0,        !- Field 13
    For: Holidays,            !- Field 14
    Until: 24:00, 0.0;        !- Field 15

SCHEDULE:COMPACT,
    Office_Lights_Schedule,    !- Name
    Fraction,                 !- Schedule Type Limits Name
    Through: 12/31,           !- Field 1
    For: Weekdays,            !- Field 2
    Until: 07:00, 0.05,       !- Field 3
    Until: 09:00, 0.3,        !- Field 4
    Until: 12:00, 1.0,        !- Field 5
    Until: 13:00, 0.8,        !- Field 6
    Until: 18:00, 1.0,        !- Field 7
    Until: 20:00, 0.3,        !- Field 8
    Until: 24:00, 0.05,       !- Field 9
    For: Saturday,            !- Field 10
    Until: 24:00, 0.05,       !- Field 11
    For: Sunday,              !- Field 12
    Until: 24:00, 0.05,       !- Field 13
    For: Holidays,            !- Field 14
    Until: 24:00, 0.05;       !- Field 15

SCHEDULE:COMPACT,
    Office_Heating_Setpoint,    !- Name
    Temperature,              !- Schedule Type Limits Name
    Through: 12/31,           !- Field 1
    For: Weekdays,            !- Field 2
    Until: 07:00, 15.0,       !- Field 3
    Until: 20:00, 20.0,       !- Field 4
    Until: 24:00, 15.0,       !- Field 5
    For: Saturday,            !- Field 6
    Until: 24:00, 15.0,       !- Field 7
    For: Sunday,              !- Field 8
    Until: 24:00, 15.0,       !- Field 9
    For: Holidays,            !- Field 10
    Until: 24:00, 15.0;       !- Field 11

SCHEDULE:COMPACT,
    Office_Cooling_Setpoint,    !- Name
    Temperature,              !- Schedule Type Limits Name
    Through: 12/31,           !- Field 1
    For: Weekdays,            !- Field 2
    Until: 07:00, 30.0,       !- Field 3
    Until: 20:00, 24.0,       !- Field 4
    Until: 24:00, 30.0,       !- Field 5
    For: Saturday,            !- Field 6
    Until: 24:00, 30.0,       !- Field 7
    For: Sunday,              !- Field 8
    Until: 24:00, 30.0,       !- Field 9
    For: Holidays,            !- Field 10
    Until: 24:00, 30.0;       !- Field 11

SCHEDULE:COMPACT,
    Office_HVAC_Availability,    !- Name
    Fraction,                 !- Schedule Type Limits Name
    Through: 12/31,           !- Field 1
    For: Weekdays,            !- Field 2
    Until: 07:00, 0.0,        !- Field 3
    Until: 20:00, 1.0,        !- Field 4
    Until: 24:00, 0.0,        !- Field 5
    For: Saturday,            !- Field 6
    Until: 24:00, 0.0,        !- Field 7
    For: Sunday,              !- Field 8
    Until: 24:00, 0.0,        !- Field 9
    For: Holidays,            !- Field 10
    Until: 24:00, 0.0;        !- Field 11

MATERIAL,
    Mat_Stucco,               !- Name
    Smooth,                   !- Roughness
    0.025,                    !- Thickness
    0.72,                     !- Conductivity
    1856,                     !- Density
    840,                      !- Specific Heat
    0.9,                      !- Thermal Absorptance
    0.7,                      !- Solar Absorptance
    0.7;                      !- Visible Absorptance

MATERIAL,
    Mat_Insulation,           !- Name
    MediumRough,              !- Roughness
    0.1,                      !- Thickness
    0.04,                     !- Conductivity
    91,                       !- Density
    837,                      !- Specific Heat
    0.9,                      !- Thermal Absorptance
    0.7,                      !- Solar Absorptance
    0.7;                      !- Visible Absorptance

MATERIAL,
    Mat_Gypsum,               !- Name
    Smooth,                   !- Roughness
    0.0127,                   !- Thickness
    0.16,                     !- Conductivity
    800,                      !- Density
    1090,                     !- Specific Heat
    0.9,                      !- Thermal Absorptance
    0.7,                      !- Solar Absorptance
    0.7;                      !- Visible Absorptance

MATERIAL,
    Mat_Floor_Concrete,       !- Name
    Rough,                    !- Roughness
    0.15,                     !- Thickness
    1.73,                     !- Conductivity
    2243,                     !- Density
    837,                      !- Specific Heat
    0.9,                      !- Thermal Absorptance
    0.7,                      !- Solar Absorptance
    0.7;                      !- Visible Absorptance

MATERIAL,
    Mat_Roof_Membrane,        !- Name
    VeryRough,                !- Roughness
    0.0095,                   !- Thickness
    0.16,                     !- Conductivity
    1121,                     !- Density
    1460,                     !- Specific Heat
    0.9,                      !- Thermal Absorptance
    0.7,                      !- Solar Absorptance
    0.7;                      !- Visible Absorptance

WINDOWMATERIAL:SIMPLEGLAZINGSYSTEM,
    Mat_SimpleGlazing,        !- Name
    2.5,                      !- UFactor
    0.6,                      !- Solar Heat Gain Coefficient
    ;                         !- Visible Transmittance

CONSTRUCTION,
    Default_Ext_Wall,         !- Name
    Mat_Stucco,               !- Outside Layer
    Mat_Insulation,           !- Layer 2
    Mat_Gypsum;               !- Layer 3

CONSTRUCTION,
    Default_Int_Wall,         !- Name
    Mat_Gypsum,               !- Outside Layer
    Mat_Insulation,           !- Layer 2
    Mat_Gypsum;               !- Layer 3

CONSTRUCTION,
    Default_GroundFloor,      !- Name
    Mat_Floor_Concrete,       !- Outside Layer
    Mat_Insulation,           !- Layer 2
    Mat_Gypsum;               !- Layer 3

CONSTRUCTION,
    Default_Roof,             !- Name
    Mat_Roof_Membrane,        !- Outside Layer
    Mat_Insulation,           !- Layer 2
    Mat_Gypsum;               !- Layer 3

CONSTRUCTION,
    Cons_InterFloor,          !- Name
    Mat_Floor_Concrete;       !- Outside Layer

CONSTRUCTION,
    Default_Window,           !- Name
    Mat_SimpleGlazing;        !- Outside Layer

GLOBALGEOMETRYRULES,
    UpperLeftCorner,          !- Starting Vertex Position
    Counterclockwise,         !- Vertex Entry Direction
    World,                    !- Coordinate System
    Relative,                 !- Daylighting Reference Point Coordinate System
    Relative;                 !- Rectangular Surface Coordinate System

ZONE,
    F1_SW_Lobby,              !- Name
    0,                        !- Direction of Relative North
    0,                        !- X Origin
    0,                        !- Y Origin
    0,                        !- Z Origin
    1,                        !- Type
    1,                        !- Multiplier
    autocalculate,            !- Ceiling Height
    autocalculate,            !- Volume
    autocalculate,            !- Floor Area
    TARP,                     !- Zone Inside Convection Algorithm
    DOE-2,                    !- Zone Outside Convection Algorithm
    Yes;                      !- Part of Total Floor Area

ZONE,
    F1_SM_Office,             !- Name
    0,                        !- Direction of Relative North
    4.64,                     !- X Origin
    0,                        !- Y Origin
    0,                        !- Z Origin
    1,                        !- Type
    1,                        !- Multiplier
    autocalculate,            !- Ceiling Height
    autocalculate,            !- Volume
    autocalculate,            !- Floor Area
    TARP,                     !- Zone Inside Convection Algorithm
    DOE-2,                    !- Zone Outside Convection Algorithm
    Yes;                      !- Part of Total Floor Area

ZONE,
    F1_SE_Office,             !- Name
    0,                        !- Direction of Relative North
    11.36,                    !- X Origin
    0,                        !- Y Origin
    0,                        !- Z Origin
    1,                        !- Type
    1,                        !- Multiplier
    autocalculate,            !- Ceiling Height
    autocalculate,            !- Volume
    autocalculate,            !- Floor Area
    TARP,                     !- Zone Inside Convection Algorithm
    DOE-2,                    !- Zone Outside Convection Algorithm
    Yes;                      !- Part of Total Floor Area

ZONE,
    F1_Corridor,              !- Name
    0,                        !- Direction of Relative North
    0,                        !- X Origin
    3,                        !- Y Origin
    0,                        !- Z Origin
    1,                        !- Type
    1,                        !- Multiplier
    autocalculate,            !- Ceiling Height
    autocalculate,            !- Volume
    autocalculate,            !- Floor Area
    TARP,                     !- Zone Inside Convection Algorithm
    DOE-2,                    !- Zone Outside Convection Algorithm
    Yes;                      !- Part of Total Floor Area

ZONE,
    F1_NW_Office,             !- Name
    0,                        !- Direction of Relative North
    0,                        !- X Origin
    5,                        !- Y Origin
    0,                        !- Z Origin
    1,                        !- Type
    1,                        !- Multiplier
    autocalculate,            !- Ceiling Height
    autocalculate,            !- Volume
    autocalculate,            !- Floor Area
    TARP,                     !- Zone Inside Convection Algorithm
    DOE-2,                    !- Zone Outside Convection Algorithm
    Yes;                      !- Part of Total Floor Area

ZONE,
    F1_NM_Office,             !- Name
    0,                        !- Direction of Relative North
    4.94,                     !- X Origin
    5,                        !- Y Origin
    0,                        !- Z Origin
    1,                        !- Type
    1,                        !- Multiplier
    autocalculate,            !- Ceiling Height
    autocalculate,            !- Volume
    autocalculate,            !- Floor Area
    TARP,                     !- Zone Inside Convection Algorithm
    DOE-2,                    !- Zone Outside Convection Algorithm
    Yes;                      !- Part of Total Floor Area

ZONE,
    F1_NE_Office,             !- Name
    0,                        !- Direction of Relative North
    11.12,                    !- X Origin
    5,                        !- Y Origin
    0,                        !- Z Origin
    1,                        !- Type
    1,                        !- Multiplier
    autocalculate,            !- Ceiling Height
    autocalculate,            !- Volume
    autocalculate,            !- Floor Area
    TARP,                     !- Zone Inside Convection Algorithm
    DOE-2,                    !- Zone Outside Convection Algorithm
    Yes;                      !- Part of Total Floor Area

ZONE,
    F2_S1_Office,             !- Name
    0,                        !- Direction of Relative North
    0,                        !- X Origin
    0,                        !- Y Origin
    3,                        !- Z Origin
    1,                        !- Type
    1,                        !- Multiplier
    autocalculate,            !- Ceiling Height
    autocalculate,            !- Volume
    autocalculate,            !- Floor Area
    TARP,                     !- Zone Inside Convection Algorithm
    DOE-2,                    !- Zone Outside Convection Algorithm
    Yes;                      !- Part of Total Floor Area

ZONE,
    F2_S2_Office,             !- Name
    0,                        !- Direction of Relative North
    4.11,                     !- X Origin
    0,                        !- Y Origin
    3,                        !- Z Origin
    1,                        !- Type
    1,                        !- Multiplier
    autocalculate,            !- Ceiling Height
    autocalculate,            !- Volume
    autocalculate,            !- Floor Area
    TARP,                     !- Zone Inside Convection Algorithm
    DOE-2,                    !- Zone Outside Convection Algorithm
    Yes;                      !- Part of Total Floor Area

ZONE,
    F2_S3_Office,             !- Name
    0,                        !- Direction of Relative North
    5.31,                     !- X Origin
    0,                        !- Y Origin
    3,                        !- Z Origin
    1,                        !- Type
    1,                        !- Multiplier
    autocalculate,            !- Ceiling Height
    autocalculate,            !- Volume
    autocalculate,            !- Floor Area
    TARP,                     !- Zone Inside Convection Algorithm
    DOE-2,                    !- Zone Outside Convection Algorithm
    Yes;                      !- Part of Total Floor Area

ZONE,
    F2_S4_Office,             !- Name
    0,                        !- Direction of Relative North
    10.89,                    !- X Origin
    0,                        !- Y Origin
    3,                        !- Z Origin
    1,                        !- Type
    1,                        !- Multiplier
    autocalculate,            !- Ceiling Height
    autocalculate,            !- Volume
    autocalculate,            !- Floor Area
    TARP,                     !- Zone Inside Convection Algorithm
    DOE-2,                    !- Zone Outside Convection Algorithm
    Yes;                      !- Part of Total Floor Area

ZONE,
    F2_Corridor,              !- Name
    0,                        !- Direction of Relative North
    0,                        !- X Origin
    3,                        !- Y Origin
    3,                        !- Z Origin
    1,                        !- Type
    1,                        !- Multiplier
    autocalculate,            !- Ceiling Height
    autocalculate,            !- Volume
    autocalculate,            !- Floor Area
    TARP,                     !- Zone Inside Convection Algorithm
    DOE-2,                    !- Zone Outside Convection Algorithm
    Yes;                      !- Part of Total Floor Area

ZONE,
    F2_N1_Meeting,            !- Name
    0,                        !- Direction of Relative North
    0,                        !- X Origin
    5,                        !- Y Origin
    3,                        !- Z Origin
    1,                        !- Type
    1,                        !- Multiplier
    autocalculate,            !- Ceiling Height
    autocalculate,            !- Volume
    autocalculate,            !- Floor Area
    TARP,                     !- Zone Inside Convection Algorithm
    DOE-2,                    !- Zone Outside Convection Algorithm
    Yes;                      !- Part of Total Floor Area

ZONE,
    F2_N2_Meeting,            !- Name
    0,                        !- Direction of Relative North
    7.5,                      !- X Origin
    5,                        !- Y Origin
    3,                        !- Z Origin
    1,                        !- Type
    1,                        !- Multiplier
    autocalculate,            !- Ceiling Height
    autocalculate,            !- Volume
    autocalculate,            !- Floor Area
    TARP,                     !- Zone Inside Convection Algorithm
    DOE-2,                    !- Zone Outside Convection Algorithm
    Yes;                      !- Part of Total Floor Area

BUILDINGSURFACE:DETAILED,
    F1_SW_Lobby_Wall,         !- Name
    Wall,                     !- Surface Type
    Default_Int_Wall,         !- Construction Name
    F1_SW_Lobby,              !- Zone Name
    ,                         !- Space Name
    Surface,                  !- Outside Boundary Condition
    F1_SM_Office_Wall,        !- Outside Boundary Condition Object
    NoSun,                    !- Sun Exposure
    NoWind,                   !- Wind Exposure
    autocalculate,            !- View Factor to Ground
    autocalculate,            !- Number of Vertices
    4.64,                     !- Vertex 1 Xcoordinate
    0,                        !- Vertex 1 Ycoordinate
    3,                        !- Vertex 1 Zcoordinate
    4.64,                     !- Vertex 2 Xcoordinate
    0,                        !- Vertex 2 Ycoordinate
    0,                        !- Vertex 2 Zcoordinate
    4.64,                     !- Vertex 3 Xcoordinate
    3,                        !- Vertex 3 Ycoordinate
    0,                        !- Vertex 3 Zcoordinate
    4.64,                     !- Vertex 4 Xcoordinate
    3,                        !- Vertex 4 Ycoordinate
    3;                        !- Vertex 4 Zcoordinate

BUILDINGSURFACE:DETAILED,
    F1_SW_Lobby_Wall_2,       !- Name
    Wall,                     !- Surface Type
    Default_Int_Wall,         !- Construction Name
    F1_SW_Lobby,              !- Zone Name
    ,                         !- Space Name
    Surface,                  !- Outside Boundary Condition
    F1_Corridor_Wall,         !- Outside Boundary Condition Object
    NoSun,                    !- Sun Exposure
    NoWind,                   !- Wind Exposure
    autocalculate,            !- View Factor to Ground
    autocalculate,            !- Number of Vertices
    4.64,                     !- Vertex 1 Xcoordinate
    3,                        !- Vertex 1 Ycoordinate
    3,                        !- Vertex 1 Zcoordinate
    4.64,                     !- Vertex 2 Xcoordinate
    3,                        !- Vertex 2 Ycoordinate
    0,                        !- Vertex 2 Zcoordinate
    0,                        !- Vertex 3 Xcoordinate
    3,                        !- Vertex 3 Ycoordinate
    0,                        !- Vertex 3 Zcoordinate
    0,                        !- Vertex 4 Xcoordinate
    3,                        !- Vertex 4 Ycoordinate
    3;                        !- Vertex 4 Zcoordinate

BUILDINGSURFACE:DETAILED,
    F1_SW_Lobby_Wall_3,       !- Name
    Wall,                     !- Surface Type
    Default_Ext_Wall,         !- Construction Name
    F1_SW_Lobby,              !- Zone Name
    ,                         !- Space Name
    Outdoors,                 !- Outside Boundary Condition
    ,                         !- Outside Boundary Condition Object
    SunExposed,               !- Sun Exposure
    WindExposed,              !- Wind Exposure
    autocalculate,            !- View Factor to Ground
    autocalculate,            !- Number of Vertices
    0,                        !- Vertex 1 Xcoordinate
    0,                        !- Vertex 1 Ycoordinate
    3,                        !- Vertex 1 Zcoordinate
    0,                        !- Vertex 2 Xcoordinate
    0,                        !- Vertex 2 Ycoordinate
    0,                        !- Vertex 2 Zcoordinate
    4.64,                     !- Vertex 3 Xcoordinate
    0,                        !- Vertex 3 Ycoordinate
    0,                        !- Vertex 3 Zcoordinate
    4.64,                     !- Vertex 4 Xcoordinate
    0,                        !- Vertex 4 Ycoordinate
    3;                        !- Vertex 4 Zcoordinate

BUILDINGSURFACE:DETAILED,
    F1_SW_Lobby_Wall_4,       !- Name
    Wall,                     !- Surface Type
    Default_Ext_Wall,         !- Construction Name
    F1_SW_Lobby,              !- Zone Name
    ,                         !- Space Name
    Outdoors,                 !- Outside Boundary Condition
    ,                         !- Outside Boundary Condition Object
    SunExposed,               !- Sun Exposure
    WindExposed,              !- Wind Exposure
    autocalculate,            !- View Factor to Ground
    autocalculate,            !- Number of Vertices
    0,                        !- Vertex 1 Xcoordinate
    3,                        !- Vertex 1 Ycoordinate
    3,                        !- Vertex 1 Zcoordinate
    0,                        !- Vertex 2 Xcoordinate
    3,                        !- Vertex 2 Ycoordinate
    0,                        !- Vertex 2 Zcoordinate
    0,                        !- Vertex 3 Xcoordinate
    0,                        !- Vertex 3 Ycoordinate
    0,                        !- Vertex 3 Zcoordinate
    0,                        !- Vertex 4 Xcoordinate
    0,                        !- Vertex 4 Ycoordinate
    3;                        !- Vertex 4 Zcoordinate

BUILDINGSURFACE:DETAILED,
    F1_SW_Lobby_Floor,        !- Name
    Floor,                    !- Surface Type
    Default_GroundFloor,      !- Construction Name
    F1_SW_Lobby,              !- Zone Name
    ,                         !- Space Name
    Ground,                   !- Outside Boundary Condition
    ,                         !- Outside Boundary Condition Object
    NoSun,                    !- Sun Exposure
    NoWind,                   !- Wind Exposure
    autocalculate,            !- View Factor to Ground
    autocalculate,            !- Number of Vertices
    0,                        !- Vertex 1 Xcoordinate
    0,                        !- Vertex 1 Ycoordinate
    0,                        !- Vertex 1 Zcoordinate
    0,                        !- Vertex 2 Xcoordinate
    3,                        !- Vertex 2 Ycoordinate
    0,                        !- Vertex 2 Zcoordinate
    4.64,                     !- Vertex 3 Xcoordinate
    3,                        !- Vertex 3 Ycoordinate
    0,                        !- Vertex 3 Zcoordinate
    4.64,                     !- Vertex 4 Xcoordinate
    0,                        !- Vertex 4 Ycoordinate
    0;                        !- Vertex 4 Zcoordinate

BUILDINGSURFACE:DETAILED,
    F1_SW_Lobby_Ceiling,      !- Name
    Ceiling,                  !- Surface Type
    Cons_InterFloor,          !- Construction Name
    F1_SW_Lobby,              !- Zone Name
    ,                         !- Space Name
    Surface,                  !- Outside Boundary Condition
    F2_S1_Office_Floor,       !- Outside Boundary Condition Object
    NoSun,                    !- Sun Exposure
    NoWind,                   !- Wind Exposure
    autocalculate,            !- View Factor to Ground
    autocalculate,            !- Number of Vertices
    0,                        !- Vertex 1 Xcoordinate
    3,                        !- Vertex 1 Ycoordinate
    3,                        !- Vertex 1 Zcoordinate
    0,                        !- Vertex 2 Xcoordinate
    0,                        !- Vertex 2 Ycoordinate
    3,                        !- Vertex 2 Zcoordinate
    4.11,                     !- Vertex 3 Xcoordinate
    0,                        !- Vertex 3 Ycoordinate
    3,                        !- Vertex 3 Zcoordinate
    4.11,                     !- Vertex 4 Xcoordinate
    3,                        !- Vertex 4 Ycoordinate
    3;                        !- Vertex 4 Zcoordinate

BUILDINGSURFACE:DETAILED,
    F1_SW_Lobby_Ceiling_2,    !- Name
    Ceiling,                  !- Surface Type
    Cons_InterFloor,          !- Construction Name
    F1_SW_Lobby,              !- Zone Name
    ,                         !- Space Name
    Surface,                  !- Outside Boundary Condition
    F2_S2_Office_Floor,       !- Outside Boundary Condition Object
    NoSun,                    !- Sun Exposure
    NoWind,                   !- Wind Exposure
    autocalculate,            !- View Factor to Ground
    autocalculate,            !- Number of Vertices
    4.11,                     !- Vertex 1 Xcoordinate
    3,                        !- Vertex 1 Ycoordinate
    3,                        !- Vertex 1 Zcoordinate
    4.11,                     !- Vertex 2 Xcoordinate
    0,                        !- Vertex 2 Ycoordinate
    3,                        !- Vertex 2 Zcoordinate
    4.64,                     !- Vertex 3 Xcoordinate
    0,                        !- Vertex 3 Ycoordinate
    3,                        !- Vertex 3 Zcoordinate
    4.64,                     !- Vertex 4 Xcoordinate
    3,                        !- Vertex 4 Ycoordinate
    3;                        !- Vertex 4 Zcoordinate

BUILDINGSURFACE:DETAILED,
    F1_SM_Office_Wall,        !- Name
    Wall,                     !- Surface Type
    Default_Int_Wall,         !- Construction Name
    F1_SM_Office,             !- Zone Name
    ,                         !- Space Name
    Surface,                  !- Outside Boundary Condition
    F1_SW_Lobby_Wall,         !- Outside Boundary Condition Object
    NoSun,                    !- Sun Exposure
    NoWind,                   !- Wind Exposure
    autocalculate,            !- View Factor to Ground
    autocalculate,            !- Number of Vertices
    4.64,                     !- Vertex 1 Xcoordinate
    3,                        !- Vertex 1 Ycoordinate
    3,                        !- Vertex 1 Zcoordinate
    4.64,                     !- Vertex 2 Xcoordinate
    3,                        !- Vertex 2 Ycoordinate
    0,                        !- Vertex 2 Zcoordinate
    4.64,                     !- Vertex 3 Xcoordinate
    0,                        !- Vertex 3 Ycoordinate
    0,                        !- Vertex 3 Zcoordinate
    4.64,                     !- Vertex 4 Xcoordinate
    0,                        !- Vertex 4 Ycoordinate
    3;                        !- Vertex 4 Zcoordinate

BUILDINGSURFACE:DETAILED,
    F1_SM_Office_Wall_2,      !- Name
    Wall,                     !- Surface Type