!- Windows Line endings 

VERSION,
    25.1.0;                   !- Version Identifier

SIMULATIONCONTROL,
    No,                       !- Do Zone Sizing Calculation
    No,                       !- Do System Sizing Calculation
    No,                       !- Do Plant Sizing Calculation
    Yes,                      !- Run Simulation for Sizing Periods
    Yes,                      !- Run Simulation for Weather File Run Periods
    Yes,                      !- Do HVAC Sizing Simulation for Sizing Periods
    1;                        !- Maximum Number of HVAC Sizing Simulation Passes

BUILDING,
    Smalloffice_20,           !- Name
    0,                        !- North Axis
    Suburbs,                  !- Terrain
    0.04,                     !- Loads Convergence Tolerance Value
    0.4,                      !- Temperature Convergence Tolerance Value
    FullExterior,             !- Solar Distribution
    25,                       !- Maximum Number of Warmup Days
    1;                        !- Minimum Number of Warmup Days

SITE:LOCATION,
    Shenzhen_CN,              !- Name
    22.55,                    !- Latitude
    114.1,                    !- Longitude
    8,                        !- Time Zone
    6;                        !- Elevation

RUNPERIOD,
    Default Run Period,       !- Name
    1,                        !- Begin Month
    1,                        !- Begin Day of Month
    ,                         !- Begin Year
    12,                       !- End Month
    31,                       !- End Day of Month
    ,                         !- End Year
    ,                         !- Day of Week for Start Day
    Yes,                      !- Use Weather File Holidays and Special Days
    Yes,                      !- Use Weather File Daylight Saving Period
    No,                       !- Apply Weekend Holiday Rule
    Yes,                      !- Use Weather File Rain Indicators
    Yes,                      !- Use Weather File Snow Indicators
    No,                       !- Treat Weather as Actual
    Hour24;                   !- First Hour Interpolation Starting Values

SCHEDULETYPELIMITS,
    Frac_Limits,              !- Name
    0,                        !- Lower Limit Value
    1,                        !- Upper Limit Value
    CONTINUOUS,               !- Numeric Type
    Dimensionless;            !- Unit Type

SCHEDULETYPELIMITS,
    Temp_Limits,              !- Name
    -60,                      !- Lower Limit Value
    200,                      !- Upper Limit Value
    CONTINUOUS,               !- Numeric Type
    Temperature;              !- Unit Type

SCHEDULETYPELIMITS,
    OnOff_Limits,             !- Name
    0,                        !- Lower Limit Value
    1,                        !- Upper Limit Value
    DISCRETE,                 !- Numeric Type
    Dimensionless;            !- Unit Type

SCHEDULETYPELIMITS,
    Activity_Limits,          !- Name
    0,                        !- Lower Limit Value
    1000,                     !- Upper Limit Value
    CONTINUOUS,               !- Numeric Type
    ActivityLevel;            !- Unit Type

SCHEDULE:COMPACT,
    Office_Occupancy_Frac,    !- Name
    Frac_Limits,              !- Schedule Type Limits Name
    Through: 12/31,           !- Field 1
    For: Weekdays,            !- Field 2
    Until: 08:00, 0.0,        !- Field 3
    Until: 09:00, 0.5,        !- Field 4
    Until: 12:00, 1.0,        !- Field 5
    Until: 13:00, 0.5,        !- Field 6
    Until: 18:00, 1.0,        !- Field 7
    Until: 19:00, 0.3,        !- Field 8
    Until: 24:00, 0.0,        !- Field 9
    For: AllOtherDays,        !- Field 10
    Until: 24:00, 0.0;        !- Field 11

SCHEDULE:COMPACT,
    Office_Lighting_Frac,     !- Name
    Frac_Limits,              !- Schedule Type Limits Name
    Through: 12/31,           !- Field 1
    For: Weekdays,            !- Field 2
    Until: 08:00, 0.05,       !- Field 3
    Until: 18:00, 0.9,        !- Field 4
    Until: 22:00, 0.2,        !- Field 5
    Until: 24:00, 0.05,       !- Field 6
    For: AllOtherDays,        !- Field 7
    Until: 24:00, 0.05;       !- Field 8

SCHEDULE:COMPACT,
    Office_Activity_Level,    !- Name
    Activity_Limits,          !- Schedule Type Limits Name
    Through: 12/31,           !- Field 1
    For: AllDays,             !- Field 2
    Until: 24:00, 120.0;      !- Field 3

SCHEDULE:COMPACT,
    Office_HVAC_OnOff,        !- Name
    OnOff_Limits,             !- Schedule Type Limits Name
    Through: 12/31,           !- Field 1
    For: Weekdays,            !- Field 2
    Until: 07:00, 0.0,        !- Field 3
    Until: 19:00, 1.0,        !- Field 4
    Until: 24:00, 0.0,        !- Field 5
    For: AllOtherDays,        !- Field 6
    Until: 24:00, 0.0;        !- Field 7

SCHEDULE:COMPACT,
    Office_Cooling_Setpoint,    !- Name
    Temp_Limits,              !- Schedule Type Limits Name
    Through: 12/31,           !- Field 1
    For: Weekdays,            !- Field 2
    Until: 07:00, 30.0,       !- Field 3
    Until: 19:00, 24.0,       !- Field 4
    Until: 24:00, 30.0,       !- Field 5
    For: AllOtherDays,        !- Field 6
    Until: 24:00, 30.0;       !- Field 7

SCHEDULE:COMPACT,
    Office_Heating_Setpoint,    !- Name
    Temp_Limits,              !- Schedule Type Limits Name
    Through: 12/31,           !- Field 1
    For: Weekdays,            !- Field 2
    Until: 07:00, 15.0,       !- Field 3
    Until: 19:00, 20.0,       !- Field 4
    Until: 24:00, 15.0,       !- Field 5
    For: AllOtherDays,        !- Field 6
    Until: 24:00, 15.0;       !- Field 7

SCHEDULE:COMPACT,
    Always_On,                !- Name
    OnOff_Limits,             !- Schedule Type Limits Name
    Through: 12/31,           !- Field 1
    For: AllDays,             !- Field 2
    Until: 24:00, 1.0;        !- Field 3

MATERIAL,
    Mat_Stucco,               !- Name
    Smooth,                   !- Roughness
    0.025,                    !- Thickness
    0.72,                     !- Conductivity
    1856,                     !- Density
    840,                      !- Specific Heat
    0.9,                      !- Thermal Absorptance
    0.7,                      !- Solar Absorptance
    0.7;                      !- Visible Absorptance

MATERIAL,
    Mat_Insulation,           !- Name
    MediumRough,              !- Roughness
    0.0815,                   !- Thickness
    0.049,                    !- Conductivity
    265,                      !- Density
    836.8,                    !- Specific Heat
    0.9,                      !- Thermal Absorptance
    0.7,                      !- Solar Absorptance
    0.7;                      !- Visible Absorptance

MATERIAL,
    Mat_Gypsum,               !- Name
    MediumSmooth,             !- Roughness
    0.0127,                   !- Thickness
    0.16,                     !- Conductivity
    784.9,                    !- Density
    830,                      !- Specific Heat
    0.9,                      !- Thermal Absorptance
    0.7,                      !- Solar Absorptance
    0.7;                      !- Visible Absorptance

MATERIAL,
    Mat_Concrete_200,         !- Name
    MediumRough,              !- Roughness
    0.2,                      !- Thickness
    1.31,                     !- Conductivity
    2240,                     !- Density
    836.8,                    !- Specific Heat
    0.9,                      !- Thermal Absorptance
    0.7,                      !- Solar Absorptance
    0.7;                      !- Visible Absorptance

MATERIAL,
    Mat_Carpet,               !- Name
    Smooth,                   !- Roughness
    0.0254,                   !- Thickness
    0.06,                     !- Conductivity
    288,                      !- Density
    1380,                     !- Specific Heat
    0.9,                      !- Thermal Absorptance
    0.7,                      !- Solar Absorptance
    0.7;                      !- Visible Absorptance

MATERIAL,
    Mat_RoofMembrane,         !- Name
    Rough,                    !- Roughness
    0.01,                     !- Thickness
    0.16,                     !- Conductivity
    1121,                     !- Density
    1460,                     !- Specific Heat
    0.9,                      !- Thermal Absorptance
    0.7,                      !- Solar Absorptance
    0.7;                      !- Visible Absorptance

MATERIAL,
    Mat_RoofInsulation,       !- Name
    MediumRough,              !- Roughness
    0.1,                      !- Thickness
    0.049,                    !- Conductivity
    265,                      !- Density
    836.8,                    !- Specific Heat
    0.9,                      !- Thermal Absorptance
    0.7,                      !- Solar Absorptance
    0.7;                      !- Visible Absorptance

WINDOWMATERIAL:SIMPLEGLAZINGSYSTEM,
    Mat_SimpleGlazing,        !- Name
    2.7,                      !- UFactor
    0.4,                      !- Solar Heat Gain Coefficient
    0.6;                      !- Visible Transmittance

CONSTRUCTION,
    Default_Ext_Wall,         !- Name
    Mat_Stucco,               !- Outside Layer
    Mat_Insulation,           !- Layer 2
    Mat_Gypsum;               !- Layer 3

CONSTRUCTION,
    Default_Int_Wall,         !- Name
    Mat_Gypsum,               !- Outside Layer
    Mat_Insulation,           !- Layer 2
    Mat_Gypsum;               !- Layer 3

CONSTRUCTION,
    Default_GroundFloor,      !- Name
    Mat_Concrete_200,         !- Outside Layer
    Mat_Carpet;               !- Layer 2

CONSTRUCTION,
    Default_Floor,            !- Name
    Mat_Carpet,               !- Outside Layer
    Mat_Concrete_200;         !- Layer 2

CONSTRUCTION,
    Default_Ceiling,          !- Name
    Mat_Concrete_200,         !- Outside Layer
    Mat_Gypsum;               !- Layer 2

CONSTRUCTION,
    Default_Roof,             !- Name
    Mat_RoofMembrane,         !- Outside Layer
    Mat_RoofInsulation,       !- Layer 2
    Mat_Concrete_200;         !- Layer 3

CONSTRUCTION,
    Default_Window,           !- Name
    Mat_SimpleGlazing;        !- Outside Layer

GLOBALGEOMETRYRULES,
    UpperLeftCorner,          !- Starting Vertex Position
    Counterclockwise,         !- Vertex Entry Direction
    World,                    !- Coordinate System
    Relative,                 !- Daylighting Reference Point Coordinate System
    Relative;                 !- Rectangular Surface Coordinate System

ZONE,
    F1_S1,                    !- Name
    0,                        !- Direction of Relative North
    0,                        !- X Origin
    0,                        !- Y Origin
    0,                        !- Z Origin
    1,                        !- Type
    1,                        !- Multiplier
    autocalculate,            !- Ceiling Height
    autocalculate,            !- Volume
    autocalculate,            !- Floor Area
    TARP,                     !- Zone Inside Convection Algorithm
    DOE-2,                    !- Zone Outside Convection Algorithm
    Yes;                      !- Part of Total Floor Area

ZONE,
    F1_S2,                    !- Name
    0,                        !- Direction of Relative North
    5,                        !- X Origin
    0,                        !- Y Origin
    0,                        !- Z Origin
    1,                        !- Type
    1,                        !- Multiplier
    autocalculate,            !- Ceiling Height
    autocalculate,            !- Volume
    autocalculate,            !- Floor Area
    TARP,                     !- Zone Inside Convection Algorithm
    DOE-2,                    !- Zone Outside Convection Algorithm
    Yes;                      !- Part of Total Floor Area

ZONE,
    F1_S3,                    !- Name
    0,                        !- Direction of Relative North
    10,                       !- X Origin
    0,                        !- Y Origin
    0,                        !- Z Origin
    1,                        !- Type
    1,                        !- Multiplier
    autocalculate,            !- Ceiling Height
    autocalculate,            !- Volume
    autocalculate,            !- Floor Area
    TARP,                     !- Zone Inside Convection Algorithm
    DOE-2,                    !- Zone Outside Convection Algorithm
    Yes;                      !- Part of Total Floor Area

ZONE,
    F1_Corridor,              !- Name
    0,                        !- Direction of Relative North
    0,                        !- X Origin
    3,                        !- Y Origin
    0,                        !- Z Origin
    1,                        !- Type
    1,                        !- Multiplier
    autocalculate,            !- Ceiling Height
    autocalculate,            !- Volume
    autocalculate,            !- Floor Area
    TARP,                     !- Zone Inside Convection Algorithm
    DOE-2,                    !- Zone Outside Convection Algorithm
    Yes;                      !- Part of Total Floor Area

ZONE,
    F1_N1,                    !- Name
    0,                        !- Direction of Relative North
    0,                        !- X Origin
    5,                        !- Y Origin
    0,                        !- Z Origin
    1,                        !- Type
    1,                        !- Multiplier
    autocalculate,            !- Ceiling Height
    autocalculate,            !- Volume
    autocalculate,            !- Floor Area
    TARP,                     !- Zone Inside Convection Algorithm
    DOE-2,                    !- Zone Outside Convection Algorithm
    Yes;                      !- Part of Total Floor Area

ZONE,
    F1_N2,                    !- Name
    0,                        !- Direction of Relative North
    5,                        !- X Origin
    5,                        !- Y Origin
    0,                        !- Z Origin
    1,                        !- Type
    1,                        !- Multiplier
    autocalculate,            !- Ceiling Height
    autocalculate,            !- Volume
    autocalculate,            !- Floor Area
    TARP,                     !- Zone Inside Convection Algorithm
    DOE-2,                    !- Zone Outside Convection Algorithm
    Yes;                      !- Part of Total Floor Area

ZONE,
    F1_N3,                    !- Name
    0,                        !- Direction of Relative North
    10,                       !- X Origin
    5,                        !- Y Origin
    0,                        !- Z Origin
    1,                        !- Type
    1,                        !- Multiplier
    autocalculate,            !- Ceiling Height
    autocalculate,            !- Volume
    autocalculate,            !- Floor Area
    TARP,                     !- Zone Inside Convection Algorithm
    DOE-2,                    !- Zone Outside Convection Algorithm
    Yes;                      !- Part of Total Floor Area

ZONE,
    F2_S1,                    !- Name
    0,                        !- Direction of Relative North
    0,                        !- X Origin
    0,                        !- Y Origin
    3.6,                      !- Z Origin
    1,                        !- Type
    1,                        !- Multiplier
    autocalculate,            !- Ceiling Height
    autocalculate,            !- Volume
    autocalculate,            !- Floor Area
    TARP,                     !- Zone Inside Convection Algorithm
    DOE-2,                    !- Zone Outside Convection Algorithm
    Yes;                      !- Part of Total Floor Area

ZONE,
    F2_S2,                    !- Name
    0,                        !- Direction of Relative North
    5,                        !- X Origin
    0,                        !- Y Origin
    3.6,                      !- Z Origin
    1,                        !- Type
    1,                        !- Multiplier
    autocalculate,            !- Ceiling Height
    autocalculate,            !- Volume
    autocalculate,            !- Floor Area
    TARP,                     !- Zone Inside Convection Algorithm
    DOE-2,                    !- Zone Outside Convection Algorithm
    Yes;                      !- Part of Total Floor Area

ZONE,
    F2_S3,                    !- Name
    0,                        !- Direction of Relative North
    10,                       !- X Origin
    0,                        !- Y Origin
    3.6,                      !- Z Origin
    1,                        !- Type
    1,                        !- Multiplier
    autocalculate,            !- Ceiling Height
    autocalculate,            !- Volume
    autocalculate,            !- Floor Area
    TARP,                     !- Zone Inside Convection Algorithm
    DOE-2,                    !- Zone Outside Convection Algorithm
    Yes;                      !- Part of Total Floor Area

ZONE,
    F2_Corridor,              !- Name
    0,                        !- Direction of Relative North
    0,                        !- X Origin
    3,                        !- Y Origin
    3.6,                      !- Z Origin
    1,                        !- Type
    1,                        !- Multiplier
    autocalculate,            !- Ceiling Height
    autocalculate,            !- Volume
    autocalculate,            !- Floor Area
    TARP,                     !- Zone Inside Convection Algorithm
    DOE-2,                    !- Zone Outside Convection Algorithm
    Yes;                      !- Part of Total Floor Area

ZONE,
    F2_N1,                    !- Name
    0,                        !- Direction of Relative North
    0,                        !- X Origin
    5,                        !- Y Origin
    3.6,                      !- Z Origin
    1,                        !- Type
    1,                        !- Multiplier
    autocalculate,            !- Ceiling Height
    autocalculate,            !- Volume
    autocalculate,            !- Floor Area
    TARP,                     !- Zone Inside Convection Algorithm
    DOE-2,                    !- Zone Outside Convection Algorithm
    Yes;                      !- Part of Total Floor Area

ZONE,
    F2_N2,                    !- Name
    0,                        !- Direction of Relative North
    3.75,                     !- X Origin
    5,                        !- Y Origin
    3.6,                      !- Z Origin
    1,                        !- Type
    1,                        !- Multiplier
    autocalculate,            !- Ceiling Height
    autocalculate,            !- Volume
    autocalculate,            !- Floor Area
    TARP,                     !- Zone Inside Convection Algorithm
    DOE-2,                    !- Zone Outside Convection Algorithm
    Yes;                      !- Part of Total Floor Area

ZONE,
    F2_N3,                    !- Name
    0,                        !- Direction of Relative North
    7.5,                      !- X Origin
    5,                        !- Y Origin
    3.6,                      !- Z Origin
    1,                        !- Type
    1,                        !- Multiplier
    autocalculate,            !- Ceiling Height
    autocalculate,            !- Volume
    autocalculate,            !- Floor Area
    TARP,                     !- Zone Inside Convection Algorithm
    DOE-2,                    !- Zone Outside Convection Algorithm
    Yes;                      !- Part of Total Floor Area

ZONE,
    F2_N4,                    !- Name
    0,                        !- Direction of Relative North
    11.25,                    !- X Origin
    5,                        !- Y Origin
    3.6,                      !- Z Origin
    1,                        !- Type
    1,                        !- Multiplier
    autocalculate,            !- Ceiling Height
    autocalculate,            !- Volume
    autocalculate,            !- Floor Area
    TARP,                     !- Zone Inside Convection Algorithm
    DOE-2,                    !- Zone Outside Convection Algorithm
    Yes;                      !- Part of Total Floor Area

ZONE,
    F3_S1,                    !- Name
    0,                        !- Direction of Relative North
    0,                        !- X Origin
    0,                        !- Y Origin
    7.2,                      !- Z Origin
    1,                        !- Type
    1,                        !- Multiplier
    autocalculate,            !- Ceiling Height
    autocalculate,            !- Volume
    autocalculate,            !- Floor Area
    TARP,                     !- Zone Inside Convection Algorithm
    DOE-2,                    !- Zone Outside Convection Algorithm
    Yes;                      !- Part of Total Floor Area

ZONE,
    F3_S2,                    !- Name
    0,                        !- Direction of Relative North
    7.5,                      !- X Origin
    0,                        !- Y Origin
    7.2,                      !- Z Origin
    1,                        !- Type
    1,                        !- Multiplier
    autocalculate,            !- Ceiling Height
    autocalculate,            !- Volume
    autocalculate,            !- Floor Area
    TARP,                     !- Zone Inside Convection Algorithm
    DOE-2,                    !- Zone Outside Convection Algorithm
    Yes;                      !- Part of Total Floor Area

ZONE,
    F3_Corridor,              !- Name
    0,                        !- Direction of Relative North
    0,                        !- X Origin
    3,                        !- Y Origin
    7.2,                      !- Z Origin
    1,                        !- Type
    1,                        !- Multiplier
    autocalculate,            !- Ceiling Height
    autocalculate,            !- Volume
    autocalculate,            !- Floor Area
    TARP,                     !- Zone Inside Convection Algorithm
    DOE-2,                    !- Zone Outside Convection Algorithm
    Yes;                      !- Part of Total Floor Area

ZONE,
    F3_North,                 !- Name
    0,                        !- Direction of Relative North
    0,                        !- X Origin
    5,                        !- Y Origin
    7.2,                      !- Z Origin
    1,                        !- Type
    1,                        !- Multiplier
    autocalculate,            !- Ceiling Height
    autocalculate,            !- Volume
    autocalculate,            !- Floor Area
    TARP,                     !- Zone Inside Convection Algorithm
    DOE-2,                    !- Zone Outside Convection Algorithm
    Yes;                      !- Part of Total Floor Area

BUILDINGSURFACE:DETAILED,
    south_wall_F1_S1,         !- Name
    Wall,                     !- Surface Type
    Default_Ext_Wall,         !- Construction Name
    F1_S1,                    !- Zone Name
    ,                         !- Space Name
    Outdoors,                 !- Outside Boundary Condition
    ,                         !- Outside Boundary Condition Object
    SunExposed,               !- Sun Exposure
    WindExposed,              !- Wind Exposure
    autocalculate,            !- View Factor to Ground
    autocalculate,            !- Number of Vertices
    0,                        !- Vertex 1 Xcoordinate
    0,                        !- Vertex 1 Ycoordinate
    3.6,                      !- Vertex 1 Zcoordinate
    0,                        !- Vertex 2 Xcoordinate
    0,                        !- Vertex 2 Ycoordinate
    0,                        !- Vertex 2 Zcoordinate
    5,                        !- Vertex 3 Xcoordinate
    0,                        !- Vertex 3 Ycoordinate
    0,                        !- Vertex 3 Zcoordinate
    5,                        !- Vertex 4 Xcoordinate
    0,                        !- Vertex 4 Ycoordinate
    3.6;                      !- Vertex 4 Zcoordinate

BUILDINGSURFACE:DETAILED,
    east_wall_F1_S1,          !- Name
    Wall,                     !- Surface Type
    Default_Int_Wall,         !- Construction Name
    F1_S1,                    !- Zone Name
    ,                         !- Space Name
    Surface,                  !- Outside Boundary Condition
    west_wall_F1_S2,          !- Outside Boundary Condition Object
    NoSun,                    !- Sun Exposure
    NoWind,                   !- Wind Exposure
    autocalculate,            !- View Factor to Ground
    autocalculate,            !- Number of Vertices
    5,                        !- Vertex 1 Xcoordinate
    0,                        !- Vertex 1 Ycoordinate
    3.6,                      !- Vertex 1 Zcoordinate
    5,                        !- Vertex 2 Xcoordinate
    0,                        !- Vertex 2 Ycoordinate
    0,                        !- Vertex 2 Zcoordinate
    5,                        !- Vertex 3 Xcoordinate
    3,                        !- Vertex 3 Ycoordinate
    0,                        !- Vertex 3 Zcoordinate
    5,                        !- Vertex 4 Xcoordinate
    3,                        !- Vertex 4 Ycoordinate
    3.6;                      !- Vertex 4 Zcoordinate

BUILDINGSURFACE:DETAILED,
    north_wall_F1_S1,         !- Name
    Wall,                     !- Surface Type
    Default_Int_Wall,         !- Construction Name
    F1_S1,                    !- Zone Name
    ,                         !- Space Name
    Surface,                  !- Outside Boundary Condition
    south_wall_F1_Corridor_seg1,    !- Outside Boundary Condition Object
    NoSun,                    !- Sun Exposure
    NoWind,                   !- Wind Exposure
    autocalculate,            !- View Factor to Ground
    autocalculate,            !- Number of Vertices
    5,                        !- Vertex 1 Xcoordinate
    3,                        !- Vertex 1 Ycoordinate
    3.6,                      !- Vertex 1 Zcoordinate
    5,                        !- Vertex 2 Xcoordinate
    3,                        !- Vertex 2 Ycoordinate
    0,                        !- Vertex 2 Zcoordinate
    0,                        !- Vertex 3 Xcoordinate
    3,                        !- Vertex 3 Ycoordinate
    0,                        !- Vertex 3 Zcoordinate
    0,                        !- Vertex 4 Xcoordinate
    3,                        !- Vertex 4 Ycoordinate
    3.6;                      !- Vertex 4 Zcoordinate

BUILDINGSURFACE:DETAILED,
    west_wall_F1_S1,          !- Name
    Wall,                     !- Surface Type
    Default_Ext_Wall,         !- Construction Name
    F1_S1,                    !- Zone Name
    ,                         !- Space Name
    Outdoors,                 !- Outside Boundary Condition
    ,                         !- Outside Boundary Condition Object
    SunExposed,               !- Sun Exposure
    WindExposed,              !- Wind Exposure
    autocalculate,            !- View Factor to Ground
    autocalculate,            !- Number of Vertices
    0,                        !- Vertex 1 Xcoordinate
    3,                        !- Vertex 1 Ycoordinate
    3.6,                      !- Vertex 1 Zcoordinate
    0,                        !- Vertex 2 Xcoordinate
    3,                        !- Vertex 2 Ycoordinate
    0,                        !- Vertex 2 Zcoordinate
    0,                        !- Vertex 3 Xcoordinate
    0,                        !- Vertex 3 Ycoordinate
    0,                        !- Vertex 3 Zcoordinate
    0,                        !- Vertex 4 Xcoordinate
    0,                        !- Vertex 4 Ycoordinate
    3.6;                      !- Vertex 4 Zcoordinate

BUILDINGSURFACE:DETAILED,
    floor_F1_S1,              !- Name
    Floor,                    !- Surface Type
    Default_GroundFloor,      !- Construction Name
    F1_S1,                    !- Zone Name
    ,                         !- Space Name
    Ground,                   !- Outside Boundary Condition
    ,                         !- Outside Boundary Condition Object
    NoSun,                    !- Sun Exposure
    NoWind,                   !- Wind Exposure
    autocalculate,            !- View Factor to Ground
    autocalculate,            !- Number of Vertices
    0,                        !- Vertex 1 Xcoordinate
    0,                        !- Vertex 1 Ycoordinate
    0,                        !- Vertex 1 Zcoordinate
    0,                        !- Vertex 2 Xcoordinate
    3,                        !- Vertex 2 Ycoordinate
    0,                        !- Vertex 2 Zcoordinate
    5,                        !- Vertex 3 Xcoordinate
    3,                        !- Vertex 3 Ycoordinate
    0,                        !- Vertex 3 Zcoordinate
    5,                        !- Vertex 4 Xcoordinate
    0,                        !- Vertex 4 Ycoordinate
    0;                        !- Vertex 4 Zcoordinate

BUILDINGSURFACE:DETAILED,
    ceiling_F1_S1,            !- Name
    Ceiling,                  !- Surface Type
    Default_Ceiling,          !- Construction Name
    F1_S1,                    !- Zone Name
    ,                         !- Space Name
    Surface,                  !- Outside Boundary Condition
    floor_F2_S1,              !- Outside Boundary Condition Object
    NoSun,                    !- Sun Exposure
    NoWind,                   !- Wind Exposure
    autocalculate,            !- View Factor to Ground
    autocalculate,            !- Number of Vertices
    0,                        !- Vertex 1 Xcoordinate
    3,                        !- Vertex 1 Ycoordinate
    3.6,                      !- Vertex 1 Zcoordinate
    0,                        !- Vertex 2 Xcoordinate
    0,                        !- Vertex 2 Ycoordinate
    3.6,                      !- Vertex 2 Zcoordinate
    5,                        !- Vertex 3 Xcoordinate
    0,                        !- Vertex 3 Ycoordinate
    3.6,                      !- Vertex 3 Zcoordinate
    5,                        !- Vertex 4 Xcoordinate
    3,                        !- Vertex 4 Ycoordinate
    3.6;                      !- Vertex 4 Zcoordinate

BUILDINGSURFACE:DETAILED,
    south_wall_F1_S2,         !- Name