!- Windows Line endings

VERSION,
    25.1.0;                   !- Version Identifier

SIMULATIONCONTROL,
    No,                       !- Do Zone Sizing Calculation
    No,                       !- Do System Sizing Calculation
    No,                       !- Do Plant Sizing Calculation
    Yes,                      !- Run Simulation for Sizing Periods
    Yes,                      !- Run Simulation for Weather File Run Periods
    Yes,                      !- Do HVAC Sizing Simulation for Sizing Periods
    1;                        !- Maximum Number of HVAC Sizing Simulation Passes

BUILDING,
    Office_SmallOffice_20_Shenzhen,    !- Name
    0,                        !- North Axis
    City,                     !- Terrain
    0.04,                     !- Loads Convergence Tolerance Value
    0.4,                      !- Temperature Convergence Tolerance Value
    FullExterior,             !- Solar Distribution
    25,                       !- Maximum Number of Warmup Days
    6;                        !- Minimum Number of Warmup Days

SITE:LOCATION,
    Shenzhen_CN,              !- Name
    22.55,                    !- Latitude
    114.05,                   !- Longitude
    8,                        !- Time Zone
    5;                        !- Elevation

RUNPERIOD,
    Default Run Period,       !- Name
    1,                        !- Begin Month
    1,                        !- Begin Day of Month
    ,                         !- Begin Year
    12,                       !- End Month
    31,                       !- End Day of Month
    ,                         !- End Year
    ,                         !- Day of Week for Start Day
    Yes,                      !- Use Weather File Holidays and Special Days
    Yes,                      !- Use Weather File Daylight Saving Period
    No,                       !- Apply Weekend Holiday Rule
    Yes,                      !- Use Weather File Rain Indicators
    Yes,                      !- Use Weather File Snow Indicators
    No,                       !- Treat Weather as Actual
    Hour24;                   !- First Hour Interpolation Starting Values

SCHEDULETYPELIMITS,
    Sched_Type_Fraction,      !- Name
    0,                        !- Lower Limit Value
    1,                        !- Upper Limit Value
    CONTINUOUS,               !- Numeric Type
    Dimensionless;            !- Unit Type

SCHEDULETYPELIMITS,
    Sched_Type_Temperature,    !- Name
    -60,                      !- Lower Limit Value
    200,                      !- Upper Limit Value
    CONTINUOUS,               !- Numeric Type
    Temperature;              !- Unit Type

SCHEDULETYPELIMITS,
    Sched_Type_Activity,      !- Name
    0,                        !- Lower Limit Value
    1000,                     !- Upper Limit Value
    CONTINUOUS,               !- Numeric Type
    ActivityLevel;            !- Unit Type

SCHEDULETYPELIMITS,
    Sched_Type_OnOff,         !- Name
    0,                        !- Lower Limit Value
    1,                        !- Upper Limit Value
    DISCRETE,                 !- Numeric Type
    Dimensionless;            !- Unit Type

SCHEDULE:COMPACT,
    Sched_HVAC_Avail,         !- Name
    Sched_Type_OnOff,         !- Schedule Type Limits Name
    Through: 12/31,           !- Field 1
    For: AllDays,             !- Field 2
    Until: 24:00, 1.0;        !- Field 3

SCHEDULE:COMPACT,
    Sched_Heating_Setpoint,    !- Name
    Sched_Type_Temperature,    !- Schedule Type Limits Name
    Through: 12/31,           !- Field 1
    For: Weekdays,            !- Field 2
    Until: 07:00, 18.0,       !- Field 3
    Until: 18:00, 21.0,       !- Field 4
    Until: 24:00, 18.0,       !- Field 5
    For: Weekends,            !- Field 6
    Until: 24:00, 18.0;       !- Field 7

SCHEDULE:COMPACT,
    Sched_Cooling_Setpoint,    !- Name
    Sched_Type_Temperature,    !- Schedule Type Limits Name
    Through: 12/31,           !- Field 1
    For: Weekdays,            !- Field 2
    Until: 07:00, 28.0,       !- Field 3
    Until: 18:00, 24.0,       !- Field 4
    Until: 24:00, 28.0,       !- Field 5
    For: Weekends,            !- Field 6
    Until: 24:00, 28.0;       !- Field 7

SCHEDULE:COMPACT,
    Sched_Office_Occupancy,    !- Name
    Sched_Type_Fraction,      !- Schedule Type Limits Name
    Through: 12/31,           !- Field 1
    For: Weekdays,            !- Field 2
    Until: 07:00, 0.0,        !- Field 3
    Until: 08:00, 0.2,        !- Field 4
    Until: 12:00, 0.95,       !- Field 5
    Until: 13:00, 0.5,        !- Field 6
    Until: 17:00, 0.95,       !- Field 7
    Until: 18:00, 0.3,        !- Field 8
    Until: 24:00, 0.05,       !- Field 9
    For: Weekends,            !- Field 10
    Until: 24:00, 0.0;        !- Field 11

SCHEDULE:COMPACT,
    Sched_Office_Activity,    !- Name
    Sched_Type_Activity,      !- Schedule Type Limits Name
    Through: 12/31,           !- Field 1
    For: AllDays,             !- Field 2
    Until: 24:00, 120.0;      !- Field 3

SCHEDULE:COMPACT,
    Sched_Office_Lighting,    !- Name
    Sched_Type_Fraction,      !- Schedule Type Limits Name
    Through: 12/31,           !- Field 1
    For: Weekdays,            !- Field 2
    Until: 07:00, 0.05,       !- Field 3
    Until: 08:00, 0.3,        !- Field 4
    Until: 18:00, 0.9,        !- Field 5
    Until: 20:00, 0.3,        !- Field 6
    Until: 24:00, 0.05,       !- Field 7
    For: Weekends,            !- Field 8
    Until: 24:00, 0.05;       !- Field 9

MATERIAL,
    Mat_ExtWall_Concrete,     !- Name
    MediumRough,              !- Roughness
    0.2,                      !- Thickness
    1.31,                     !- Conductivity
    2240,                     !- Density
    900,                      !- Specific Heat
    0.9,                      !- Thermal Absorptance
    0.7,                      !- Solar Absorptance
    0.7;                      !- Visible Absorptance

MATERIAL,
    Mat_IntWall_Gypsum,       !- Name
    MediumSmooth,             !- Roughness
    0.025,                    !- Thickness
    0.16,                     !- Conductivity
    800,                      !- Density
    1090,                     !- Specific Heat
    0.9,                      !- Thermal Absorptance
    0.7,                      !- Solar Absorptance
    0.7;                      !- Visible Absorptance

MATERIAL,
    Mat_Roof_Concrete,        !- Name
    MediumRough,              !- Roughness
    0.2,                      !- Thickness
    1.31,                     !- Conductivity
    2240,                     !- Density
    900,                      !- Specific Heat
    0.9,                      !- Thermal Absorptance
    0.7,                      !- Solar Absorptance
    0.7;                      !- Visible Absorptance

MATERIAL,
    Mat_Floor_Concrete,       !- Name
    MediumRough,              !- Roughness
    0.15,                     !- Thickness
    1.95,                     !- Conductivity
    2240,                     !- Density
    900,                      !- Specific Heat
    0.9,                      !- Thermal Absorptance
    0.7,                      !- Solar Absorptance
    0.7;                      !- Visible Absorptance

MATERIAL:NOMASS,
    Mat_ExtWall_Insulation,    !- Name
    MediumRough,              !- Roughness
    2,                        !- Thermal Resistance
    0.9,                      !- Thermal Absorptance
    0.7,                      !- Solar Absorptance
    0.7;                      !- Visible Absorptance

MATERIAL:NOMASS,
    Mat_Roof_Insulation,      !- Name
    MediumRough,              !- Roughness
    3.5,                      !- Thermal Resistance
    0.9,                      !- Thermal Absorptance
    0.7,                      !- Solar Absorptance
    0.7;                      !- Visible Absorptance

WINDOWMATERIAL:SIMPLEGLAZINGSYSTEM,
    Mat_Window_Glazing,       !- Name
    2.7,                      !- UFactor
    0.4,                      !- Solar Heat Gain Coefficient
    0.6;                      !- Visible Transmittance

CONSTRUCTION,
    Cons_ExtWall,             !- Name
    Mat_ExtWall_Concrete,     !- Outside Layer
    Mat_ExtWall_Insulation,    !- Layer 2
    Mat_IntWall_Gypsum;       !- Layer 3

CONSTRUCTION,
    Cons_IntWall,             !- Name
    Mat_IntWall_Gypsum,       !- Outside Layer
    Mat_IntWall_Gypsum;       !- Layer 2

CONSTRUCTION,
    Cons_Roof,                !- Name
    Mat_Roof_Concrete,        !- Outside Layer
    Mat_Roof_Insulation;      !- Layer 2

CONSTRUCTION,
    Cons_Floor_Ground,        !- Name
    Mat_Floor_Concrete;       !- Outside Layer

CONSTRUCTION,
    Cons_InterFloor,          !- Name
    Mat_Floor_Concrete,       !- Outside Layer
    Mat_IntWall_Gypsum;       !- Layer 2

CONSTRUCTION,
    Cons_Window,              !- Name
    Mat_Window_Glazing;       !- Outside Layer

GLOBALGEOMETRYRULES,
    UpperLeftCorner,          !- Starting Vertex Position
    Counterclockwise,         !- Vertex Entry Direction
    World,                    !- Coordinate System
    Relative,                 !- Daylighting Reference Point Coordinate System
    Relative;                 !- Rectangular Surface Coordinate System

ZONE,
    F1_S1,                    !- Name
    0,                        !- Direction of Relative North
    0,                        !- X Origin
    0,                        !- Y Origin
    0,                        !- Z Origin
    1,                        !- Type
    1,                        !- Multiplier
    autocalculate,            !- Ceiling Height
    autocalculate,            !- Volume
    autocalculate,            !- Floor Area
    TARP,                     !- Zone Inside Convection Algorithm
    DOE-2,                    !- Zone Outside Convection Algorithm
    Yes;                      !- Part of Total Floor Area

ZONE,
    F1_S2,                    !- Name
    0,                        !- Direction of Relative North
    5,                        !- X Origin
    0,                        !- Y Origin
    0,                        !- Z Origin
    1,                        !- Type
    1,                        !- Multiplier
    autocalculate,            !- Ceiling Height
    autocalculate,            !- Volume
    autocalculate,            !- Floor Area
    TARP,                     !- Zone Inside Convection Algorithm
    DOE-2,                    !- Zone Outside Convection Algorithm
    Yes;                      !- Part of Total Floor Area

ZONE,
    F1_S3,                    !- Name
    0,                        !- Direction of Relative North
    10,                       !- X Origin
    0,                        !- Y Origin
    0,                        !- Z Origin
    1,                        !- Type
    1,                        !- Multiplier
    autocalculate,            !- Ceiling Height
    autocalculate,            !- Volume
    autocalculate,            !- Floor Area
    TARP,                     !- Zone Inside Convection Algorithm
    DOE-2,                    !- Zone Outside Convection Algorithm
    Yes;                      !- Part of Total Floor Area

ZONE,
    F1_COR,                   !- Name
    0,                        !- Direction of Relative North
    0,                        !- X Origin
    3,                        !- Y Origin
    0,                        !- Z Origin
    1,                        !- Type
    1,                        !- Multiplier
    autocalculate,            !- Ceiling Height
    autocalculate,            !- Volume
    autocalculate,            !- Floor Area
    TARP,                     !- Zone Inside Convection Algorithm
    DOE-2,                    !- Zone Outside Convection Algorithm
    Yes;                      !- Part of Total Floor Area

ZONE,
    F1_N1,                    !- Name
    0,                        !- Direction of Relative North
    0,                        !- X Origin
    5,                        !- Y Origin
    0,                        !- Z Origin
    1,                        !- Type
    1,                        !- Multiplier
    autocalculate,            !- Ceiling Height
    autocalculate,            !- Volume
    autocalculate,            !- Floor Area
    TARP,                     !- Zone Inside Convection Algorithm
    DOE-2,                    !- Zone Outside Convection Algorithm
    Yes;                      !- Part of Total Floor Area

ZONE,
    F1_N2,                    !- Name
    0,                        !- Direction of Relative North
    5,                        !- X Origin
    5,                        !- Y Origin
    0,                        !- Z Origin
    1,                        !- Type
    1,                        !- Multiplier
    autocalculate,            !- Ceiling Height
    autocalculate,            !- Volume
    autocalculate,            !- Floor Area
    TARP,                     !- Zone Inside Convection Algorithm
    DOE-2,                    !- Zone Outside Convection Algorithm
    Yes;                      !- Part of Total Floor Area

ZONE,
    F1_N3,                    !- Name
    0,                        !- Direction of Relative North
    10,                       !- X Origin
    5,                        !- Y Origin
    0,                        !- Z Origin
    1,                        !- Type
    1,                        !- Multiplier
    autocalculate,            !- Ceiling Height
    autocalculate,            !- Volume
    autocalculate,            !- Floor Area
    TARP,                     !- Zone Inside Convection Algorithm
    DOE-2,                    !- Zone Outside Convection Algorithm
    Yes;                      !- Part of Total Floor Area

ZONE,
    F2_S1,                    !- Name
    0,                        !- Direction of Relative North
    0,                        !- X Origin
    0,                        !- Y Origin
    3.6,                      !- Z Origin
    1,                        !- Type
    1,                        !- Multiplier
    autocalculate,            !- Ceiling Height
    autocalculate,            !- Volume
    autocalculate,            !- Floor Area
    TARP,                     !- Zone Inside Convection Algorithm
    DOE-2,                    !- Zone Outside Convection Algorithm
    Yes;                      !- Part of Total Floor Area

ZONE,
    F2_S2,                    !- Name
    0,                        !- Direction of Relative North
    5,                        !- X Origin
    0,                        !- Y Origin
    3.6,                      !- Z Origin
    1,                        !- Type
    1,                        !- Multiplier
    autocalculate,            !- Ceiling Height
    autocalculate,            !- Volume
    autocalculate,            !- Floor Area
    TARP,                     !- Zone Inside Convection Algorithm
    DOE-2,                    !- Zone Outside Convection Algorithm
    Yes;                      !- Part of Total Floor Area

ZONE,
    F2_S3,                    !- Name
    0,                        !- Direction of Relative North
    10,                       !- X Origin
    0,                        !- Y Origin
    3.6,                      !- Z Origin
    1,                        !- Type
    1,                        !- Multiplier
    autocalculate,            !- Ceiling Height
    autocalculate,            !- Volume
    autocalculate,            !- Floor Area
    TARP,                     !- Zone Inside Convection Algorithm
    DOE-2,                    !- Zone Outside Convection Algorithm
    Yes;                      !- Part of Total Floor Area

ZONE,
    F2_COR,                   !- Name
    0,                        !- Direction of Relative North
    0,                        !- X Origin
    3,                        !- Y Origin
    3.6,                      !- Z Origin
    1,                        !- Type
    1,                        !- Multiplier
    autocalculate,            !- Ceiling Height
    autocalculate,            !- Volume
    autocalculate,            !- Floor Area
    TARP,                     !- Zone Inside Convection Algorithm
    DOE-2,                    !- Zone Outside Convection Algorithm
    Yes;                      !- Part of Total Floor Area

ZONE,
    F2_N1,                    !- Name
    0,                        !- Direction of Relative North
    0,                        !- X Origin
    5,                        !- Y Origin
    3.6,                      !- Z Origin
    1,                        !- Type
    1,                        !- Multiplier
    autocalculate,            !- Ceiling Height
    autocalculate,            !- Volume
    autocalculate,            !- Floor Area
    TARP,                     !- Zone Inside Convection Algorithm
    DOE-2,                    !- Zone Outside Convection Algorithm
    Yes;                      !- Part of Total Floor Area

ZONE,
    F2_N2,                    !- Name
    0,                        !- Direction of Relative North
    3.75,                     !- X Origin
    5,                        !- Y Origin
    3.6,                      !- Z Origin
    1,                        !- Type
    1,                        !- Multiplier
    autocalculate,            !- Ceiling Height
    autocalculate,            !- Volume
    autocalculate,            !- Floor Area
    TARP,                     !- Zone Inside Convection Algorithm
    DOE-2,                    !- Zone Outside Convection Algorithm
    Yes;                      !- Part of Total Floor Area

ZONE,
    F2_N3,                    !- Name
    0,                        !- Direction of Relative North
    7.5,                      !- X Origin
    5,                        !- Y Origin
    3.6,                      !- Z Origin
    1,                        !- Type
    1,                        !- Multiplier
    autocalculate,            !- Ceiling Height
    autocalculate,            !- Volume
    autocalculate,            !- Floor Area
    TARP,                     !- Zone Inside Convection Algorithm
    DOE-2,                    !- Zone Outside Convection Algorithm
    Yes;                      !- Part of Total Floor Area

ZONE,
    F2_N4,                    !- Name
    0,                        !- Direction of Relative North
    11.25,                    !- X Origin
    5,                        !- Y Origin
    3.6,                      !- Z Origin
    1,                        !- Type
    1,                        !- Multiplier
    autocalculate,            !- Ceiling Height
    autocalculate,            !- Volume
    autocalculate,            !- Floor Area
    TARP,                     !- Zone Inside Convection Algorithm
    DOE-2,                    !- Zone Outside Convection Algorithm
    Yes;                      !- Part of Total Floor Area

ZONE,
    F3_S1,                    !- Name
    0,                        !- Direction of Relative North
    0,                        !- X Origin
    0,                        !- Y Origin
    7.2,                      !- Z Origin
    1,                        !- Type
    1,                        !- Multiplier
    autocalculate,            !- Ceiling Height
    autocalculate,            !- Volume
    autocalculate,            !- Floor Area
    TARP,                     !- Zone Inside Convection Algorithm
    DOE-2,                    !- Zone Outside Convection Algorithm
    Yes;                      !- Part of Total Floor Area

ZONE,
    F3_S2,                    !- Name
    0,                        !- Direction of Relative North
    7.5,                      !- X Origin
    0,                        !- Y Origin
    7.2,                      !- Z Origin
    1,                        !- Type
    1,                        !- Multiplier
    autocalculate,            !- Ceiling Height
    autocalculate,            !- Volume
    autocalculate,            !- Floor Area
    TARP,                     !- Zone Inside Convection Algorithm
    DOE-2,                    !- Zone Outside Convection Algorithm
    Yes;                      !- Part of Total Floor Area

ZONE,
    F3_COR,                   !- Name
    0,                        !- Direction of Relative North
    0,                        !- X Origin
    3,                        !- Y Origin
    7.2,                      !- Z Origin
    1,                        !- Type
    1,                        !- Multiplier
    autocalculate,            !- Ceiling Height
    autocalculate,            !- Volume
    autocalculate,            !- Floor Area
    TARP,                     !- Zone Inside Convection Algorithm
    DOE-2,                    !- Zone Outside Convection Algorithm
    Yes;                      !- Part of Total Floor Area

ZONE,
    F3_N1,                    !- Name
    0,                        !- Direction of Relative North
    0,                        !- X Origin
    5,                        !- Y Origin
    7.2,                      !- Z Origin
    1,                        !- Type
    1,                        !- Multiplier
    autocalculate,            !- Ceiling Height
    autocalculate,            !- Volume
    autocalculate,            !- Floor Area
    TARP,                     !- Zone Inside Convection Algorithm
    DOE-2,                    !- Zone Outside Convection Algorithm
    Yes;                      !- Part of Total Floor Area

BUILDINGSURFACE:DETAILED,
    F1_S1_South_Wall,         !- Name
    Wall,                     !- Surface Type
    Cons_ExtWall,             !- Construction Name
    F1_S1,                    !- Zone Name
    ,                         !- Space Name
    Outdoors,                 !- Outside Boundary Condition
    ,                         !- Outside Boundary Condition Object
    SunExposed,               !- Sun Exposure
    WindExposed,              !- Wind Exposure
    autocalculate,            !- View Factor to Ground
    autocalculate,            !- Number of Vertices
    0,                        !- Vertex 1 Xcoordinate
    0,                        !- Vertex 1 Ycoordinate
    3.6,                      !- Vertex 1 Zcoordinate
    0,                        !- Vertex 2 Xcoordinate
    0,                        !- Vertex 2 Ycoordinate
    0,                        !- Vertex 2 Zcoordinate
    5,                        !- Vertex 3 Xcoordinate
    0,                        !- Vertex 3 Ycoordinate
    0,                        !- Vertex 3 Zcoordinate
    5,                        !- Vertex 4 Xcoordinate
    0,                        !- Vertex 4 Ycoordinate
    3.6;                      !- Vertex 4 Zcoordinate

BUILDINGSURFACE:DETAILED,
    F1_S1_West_Wall,          !- Name
    Wall,                     !- Surface Type
    Cons_ExtWall,             !- Construction Name
    F1_S1,                    !- Zone Name
    ,                         !- Space Name
    Outdoors,                 !- Outside Boundary Condition
    ,                         !- Outside Boundary Condition Object
    SunExposed,               !- Sun Exposure
    WindExposed,              !- Wind Exposure
    autocalculate,            !- View Factor to Ground
    autocalculate,            !- Number of Vertices
    0,                        !- Vertex 1 Xcoordinate
    3,                        !- Vertex 1 Ycoordinate
    3.6,                      !- Vertex 1 Zcoordinate
    0,                        !- Vertex 2 Xcoordinate
    3,                        !- Vertex 2 Ycoordinate
    0,                        !- Vertex 2 Zcoordinate
    0,                        !- Vertex 3 Xcoordinate
    0,                        !- Vertex 3 Ycoordinate
    0,                        !- Vertex 3 Zcoordinate
    0,                        !- Vertex 4 Xcoordinate
    0,                        !- Vertex 4 Ycoordinate
    3.6;                      !- Vertex 4 Zcoordinate

BUILDINGSURFACE:DETAILED,
    F1_S1_East_Wall,          !- Name
    Wall,                     !- Surface Type
    Cons_IntWall,             !- Construction Name
    F1_S1,                    !- Zone Name
    ,                         !- Space Name
    Surface,                  !- Outside Boundary Condition
    F1_S2_West_Wall,          !- Outside Boundary Condition Object
    NoSun,                    !- Sun Exposure
    NoWind,                   !- Wind Exposure
    autocalculate,            !- View Factor to Ground
    autocalculate,            !- Number of Vertices
    5,                        !- Vertex 1 Xcoordinate
    0,                        !- Vertex 1 Ycoordinate
    3.6,                      !- Vertex 1 Zcoordinate
    5,                        !- Vertex 2 Xcoordinate
    0,                        !- Vertex 2 Ycoordinate
    0,                        !- Vertex 2 Zcoordinate
    5,                        !- Vertex 3 Xcoordinate
    3,                        !- Vertex 3 Ycoordinate
    0,                        !- Vertex 3 Zcoordinate
    5,                        !- Vertex 4 Xcoordinate
    3,                        !- Vertex 4 Ycoordinate
    3.6;                      !- Vertex 4 Zcoordinate

BUILDINGSURFACE:DETAILED,
    F1_S1_North_Wall,         !- Name
    Wall,                     !- Surface Type
    Cons_IntWall,             !- Construction Name
    F1_S1,                    !- Zone Name
    ,                         !- Space Name
    Surface,                  !- Outside Boundary Condition
    F1_COR_South_Wall_1,      !- Outside Boundary Condition Object
    NoSun,                    !- Sun Exposure
    NoWind,                   !- Wind Exposure
    autocalculate,            !- View Factor to Ground
    autocalculate,            !- Number of Vertices
    5,                        !- Vertex 1 Xcoordinate
    3,                        !- Vertex 1 Ycoordinate
    3.6,                      !- Vertex 1 Zcoordinate
    5,                        !- Vertex 2 Xcoordinate
    3,                        !- Vertex 2 Ycoordinate
    0,                        !- Vertex 2 Zcoordinate
    0,                        !- Vertex 3 Xcoordinate
    3,                        !- Vertex 3 Ycoordinate
    0,                        !- Vertex 3 Zcoordinate
    0,                        !- Vertex 4 Xcoordinate
    3,                        !- Vertex 4 Ycoordinate
    3.6;                      !- Vertex 4 Zcoordinate

BUILDINGSURFACE:DETAILED,
    F1_S1_Floor,              !- Name
    Floor,                    !- Surface Type
    Cons_Floor_Ground,        !- Construction Name
    F1_S1,                    !- Zone Name
    ,                         !- Space Name
    Ground,                   !- Outside Boundary Condition
    ,                         !- Outside Boundary Condition Object
    NoSun,                    !- Sun Exposure
    NoWind,                   !- Wind Exposure
    autocalculate,            !- View Factor to Ground
    autocalculate,            !- Number of Vertices
    0,                        !- Vertex 1 Xcoordinate
    0,                        !- Vertex 1 Ycoordinate
    0,                        !- Vertex 1 Zcoordinate
    0,                        !- Vertex 2 Xcoordinate
    3,                        !- Vertex 2 Ycoordinate
    0,                        !- Vertex 2 Zcoordinate
    5,                        !- Vertex 3 Xcoordinate
    3,                        !- Vertex 3 Ycoordinate
    0,                        !- Vertex 3 Zcoordinate
    5,                        !- Vertex 4 Xcoordinate
    0,                        !- Vertex 4 Ycoordinate
    0;                        !- Vertex 4 Zcoordinate

BUILDINGSURFACE:DETAILED,
    F1_S1_Ceiling,            !- Name
    Ceiling,                  !- Surface Type
    Cons_InterFloor,          !- Construction Name
    F1_S1,                    !- Zone Name
    ,                         !- Space Name
    Surface,                  !- Outside Boundary Condition
    F2_S1_Floor,              !- Outside Boundary Condition Object
    NoSun,                    !- Sun Exposure
    NoWind,                   !- Wind Exposure
    autocalculate,            !- View Factor to Ground
    autocalculate,            !- Number of Vertices
    0,                        !- Vertex 1 Xcoordinate
    3,                        !- Vertex 1 Ycoordinate
    3.6,                      !- Vertex 1 Zcoordinate
    0,                        !- Vertex 2 Xcoordinate
    0,                        !- Vertex 2 Ycoordinate
    3.6,                      !- Vertex 2 Zcoordinate
    5,                        !- Vertex 3 Xcoordinate
    0,                        !- Vertex 3 Ycoordinate
    3.6,                      !- Vertex 3 Zcoordinate
    5,                        !- Vertex 4 Xcoordinate
    3,                        !- Vertex 4 Ycoordinate
    3.6;                      !- Vertex 4 Zcoordinate

BUILDINGSURFACE:DETAILED,
    F1_S2_South_Wall,         !- Name
    Wall,                     !- Surface Type
    Cons_ExtWall,             !- Construction Name
    F1_S2,                    !- Zone Name
    ,                         !- Space Name
    Outdoors,                 !- Outside Boundary Condition
    ,                         !- Outside Boundary Condition Object
    SunExposed,               !- Sun Exposure
    WindExposed,              !- Wind Exposure
    autocalculate,            !- View Factor to Ground
    autocalculate,            !- Number of Vertices
    5,                        !- Vertex 1 Xcoordinate
    0,                        !- Vertex 1 Ycoordinate
    3.6,                      !- Vertex 1 Zcoordinate
    5,                        !- Vertex 2 Xcoordinate
    0,                        !- Vertex 2 Ycoordinate
    0,                        !- Vertex 2 Zcoordinate
    10,                       !- Vertex 3 Xcoordinate
    0,                        !- Vertex 3 Ycoordinate
    0,                        !- Vertex 3 Zcoordinate
    10,                       !- Vertex 4 Xcoordinate
    0,                        !- Vertex 4 Ycoordinate
    3.6;                      !- Vertex 4 Zcoordinate

BUILDINGSURFACE:DETAILED,
    F1_S2_West_Wall,          !- Name
    Wall,                     !- Surface Type