!- Linux Line endings 

VERSION,
    25.1.0;                   !- Version Identifier

SIMULATIONCONTROL,
    No,                       !- Do Zone Sizing Calculation
    No,                       !- Do System Sizing Calculation
    No,                       !- Do Plant Sizing Calculation
    No,                       !- Run Simulation for Sizing Periods
    Yes,                      !- Run Simulation for Weather File Run Periods
    Yes,                      !- Do HVAC Sizing Simulation for Sizing Periods
    1;                        !- Maximum Number of HVAC Sizing Simulation Passes

BUILDING,
    SmallOffice_6,            !- Name
    0,                        !- North Axis
    Suburbs,                  !- Terrain
    0.04,                     !- Loads Convergence Tolerance Value
    0.4,                      !- Temperature Convergence Tolerance Value
    FullExterior,             !- Solar Distribution
    25,                       !- Maximum Number of Warmup Days
    1;                        !- Minimum Number of Warmup Days

SITE:LOCATION,
    Shenzhen,                 !- Name
    22.5431,                  !- Latitude
    114.0579,                 !- Longitude
    8,                        !- Time Zone
    18,                       !- Elevation
    No;                       !- Keep Site Location Information

RUNPERIOD,
    Default Run Period,       !- Name
    1,                        !- Begin Month
    1,                        !- Begin Day of Month
    2024,                     !- Begin Year
    12,                       !- End Month
    31,                       !- End Day of Month
    2024,                     !- End Year
    Sunday,                   !- Day of Week for Start Day
    Yes,                      !- Use Weather File Holidays and Special Days
    Yes,                      !- Use Weather File Daylight Saving Period
    No,                       !- Apply Weekend Holiday Rule
    Yes,                      !- Use Weather File Rain Indicators
    Yes,                      !- Use Weather File Snow Indicators
    No,                       !- Treat Weather as Actual
    Hour24;                   !- First Hour Interpolation Starting Values

MATERIAL,
    Concrete_100mm,           !- Name
    MediumRough,              !- Roughness
    0.1,                      !- Thickness
    1.73,                     !- Conductivity
    2243,                     !- Density
    837,                      !- Specific Heat
    0.9,                      !- Thermal Absorptance
    0.7,                      !- Solar Absorptance
    0.7;                      !- Visible Absorptance

MATERIAL,
    Concrete_150mm,           !- Name
    MediumRough,              !- Roughness
    0.15,                     !- Thickness
    1.73,                     !- Conductivity
    2243,                     !- Density
    837,                      !- Specific Heat
    0.9,                      !- Thermal Absorptance
    0.7,                      !- Solar Absorptance
    0.7;                      !- Visible Absorptance

MATERIAL,
    Gypsum_13mm,              !- Name
    MediumSmooth,             !- Roughness
    0.013,                    !- Thickness
    0.16,                     !- Conductivity
    950,                      !- Density
    840,                      !- Specific Heat
    0.9,                      !- Thermal Absorptance
    0.7,                      !- Solar Absorptance
    0.7;                      !- Visible Absorptance

MATERIAL,
    Insulation_50mm,          !- Name
    MediumRough,              !- Roughness
    0.05,                     !- Thickness
    0.04,                     !- Conductivity
    40,                       !- Density
    1400,                     !- Specific Heat
    0.9,                      !- Thermal Absorptance
    0.7,                      !- Solar Absorptance
    0.7;                      !- Visible Absorptance

WINDOWMATERIAL:SIMPLEGLAZINGSYSTEM,
    Double_Glazing,           !- Name
    2.7,                      !- UFactor
    0.7,                      !- Solar Heat Gain Coefficient
    0.8;                      !- Visible Transmittance

CONSTRUCTION,
    Ext_Wall,                 !- Name
    Insulation_50mm,          !- Outside Layer
    Concrete_100mm,           !- Layer 2
    Gypsum_13mm;              !- Layer 3

CONSTRUCTION,
    Int_Wall,                 !- Name
    Gypsum_13mm,              !- Outside Layer
    Gypsum_13mm;              !- Layer 2

CONSTRUCTION,
    Roof,                     !- Name
    Concrete_150mm,           !- Outside Layer
    Insulation_50mm,          !- Layer 2
    Gypsum_13mm;              !- Layer 3

CONSTRUCTION,
    Floor,                    !- Name
    Concrete_150mm;           !- Outside Layer

CONSTRUCTION,
    Window_Const,             !- Name
    Double_Glazing;           !- Outside Layer

GLOBALGEOMETRYRULES,
    UpperLeftCorner,          !- Starting Vertex Position
    Counterclockwise,         !- Vertex Entry Direction
    World,                    !- Coordinate System
    Relative,                 !- Daylighting Reference Point Coordinate System
    Relative;                 !- Rectangular Surface Coordinate System

ZONE,
    Z1_F1,                    !- Name
    0,                        !- Direction of Relative North
    0,                        !- X Origin
    0,                        !- Y Origin
    0,                        !- Z Origin
    1,                        !- Type
    1,                        !- Multiplier
    3,                        !- Ceiling Height
    autocalculate,            !- Volume
    autocalculate,            !- Floor Area
    TARP,                     !- Zone Inside Convection Algorithm
    DOE-2,                    !- Zone Outside Convection Algorithm
    Yes;                      !- Part of Total Floor Area

ZONE,
    Z2_F1,                    !- Name
    0,                        !- Direction of Relative North
    0,                        !- X Origin
    3,                        !- Y Origin
    0,                        !- Z Origin
    1,                        !- Type
    1,                        !- Multiplier
    3,                        !- Ceiling Height
    autocalculate,            !- Volume
    autocalculate,            !- Floor Area
    TARP,                     !- Zone Inside Convection Algorithm
    DOE-2,                    !- Zone Outside Convection Algorithm
    Yes;                      !- Part of Total Floor Area

ZONE,
    Z3_F1,                    !- Name
    0,                        !- Direction of Relative North
    3,                        !- X Origin
    0,                        !- Y Origin
    0,                        !- Z Origin
    1,                        !- Type
    1,                        !- Multiplier
    3,                        !- Ceiling Height
    autocalculate,            !- Volume
    autocalculate,            !- Floor Area
    TARP,                     !- Zone Inside Convection Algorithm
    DOE-2,                    !- Zone Outside Convection Algorithm
    Yes;                      !- Part of Total Floor Area

ZONE,
    Z4_F1,                    !- Name
    0,                        !- Direction of Relative North
    3,                        !- X Origin
    3,                        !- Y Origin
    0,                        !- Z Origin
    1,                        !- Type
    1,                        !- Multiplier
    3,                        !- Ceiling Height
    autocalculate,            !- Volume
    autocalculate,            !- Floor Area
    TARP,                     !- Zone Inside Convection Algorithm
    DOE-2,                    !- Zone Outside Convection Algorithm
    Yes;                      !- Part of Total Floor Area

ZONE,
    Z5_F1,                    !- Name
    0,                        !- Direction of Relative North
    0,                        !- X Origin
    6,                        !- Y Origin
    0,                        !- Z Origin
    1,                        !- Type
    1,                        !- Multiplier
    3,                        !- Ceiling Height
    autocalculate,            !- Volume
    autocalculate,            !- Floor Area
    TARP,                     !- Zone Inside Convection Algorithm
    DOE-2,                    !- Zone Outside Convection Algorithm
    Yes;                      !- Part of Total Floor Area

ZONE,
    Z6_F1,                    !- Name
    0,                        !- Direction of Relative North
    0,                        !- X Origin
    9,                        !- Y Origin
    0,                        !- Z Origin
    1,                        !- Type
    1,                        !- Multiplier
    3,                        !- Ceiling Height
    autocalculate,            !- Volume
    autocalculate,            !- Floor Area
    TARP,                     !- Zone Inside Convection Algorithm
    DOE-2,                    !- Zone Outside Convection Algorithm
    Yes;                      !- Part of Total Floor Area

ZONE,
    Z7_F1,                    !- Name
    0,                        !- Direction of Relative North
    3,                        !- X Origin
    6,                        !- Y Origin
    0,                        !- Z Origin
    1,                        !- Type
    1,                        !- Multiplier
    3,                        !- Ceiling Height
    autocalculate,            !- Volume
    autocalculate,            !- Floor Area
    TARP,                     !- Zone Inside Convection Algorithm
    DOE-2,                    !- Zone Outside Convection Algorithm
    Yes;                      !- Part of Total Floor Area

ZONE,
    Z8_F1,                    !- Name
    0,                        !- Direction of Relative North
    3,                        !- X Origin
    9,                        !- Y Origin
    0,                        !- Z Origin
    1,                        !- Type
    1,                        !- Multiplier
    3,                        !- Ceiling Height
    autocalculate,            !- Volume
    autocalculate,            !- Floor Area
    TARP,                     !- Zone Inside Convection Algorithm
    DOE-2,                    !- Zone Outside Convection Algorithm
    Yes;                      !- Part of Total Floor Area

ZONE,
    Z9_F1,                    !- Name
    0,                        !- Direction of Relative North
    0,                        !- X Origin
    12,                       !- Y Origin
    0,                        !- Z Origin
    1,                        !- Type
    1,                        !- Multiplier
    3,                        !- Ceiling Height
    autocalculate,            !- Volume
    autocalculate,            !- Floor Area
    TARP,                     !- Zone Inside Convection Algorithm
    DOE-2,                    !- Zone Outside Convection Algorithm
    Yes;                      !- Part of Total Floor Area

ZONE,
    Z10_F1,                   !- Name
    0,                        !- Direction of Relative North
    0,                        !- X Origin
    15,                       !- Y Origin
    0,                        !- Z Origin
    1,                        !- Type
    1,                        !- Multiplier
    3,                        !- Ceiling Height
    autocalculate,            !- Volume
    autocalculate,            !- Floor Area
    TARP,                     !- Zone Inside Convection Algorithm
    DOE-2,                    !- Zone Outside Convection Algorithm
    Yes;                      !- Part of Total Floor Area

ZONE,
    Z11_F1,                   !- Name
    0,                        !- Direction of Relative North
    3,                        !- X Origin
    12,                       !- Y Origin
    0,                        !- Z Origin
    1,                        !- Type
    1,                        !- Multiplier
    3,                        !- Ceiling Height
    autocalculate,            !- Volume
    autocalculate,            !- Floor Area
    TARP,                     !- Zone Inside Convection Algorithm
    DOE-2,                    !- Zone Outside Convection Algorithm
    Yes;                      !- Part of Total Floor Area

ZONE,
    Z12_F1,                   !- Name
    0,                        !- Direction of Relative North
    3,                        !- X Origin
    15,                       !- Y Origin
    0,                        !- Z Origin
    1,                        !- Type
    1,                        !- Multiplier
    3,                        !- Ceiling Height
    autocalculate,            !- Volume
    autocalculate,            !- Floor Area
    TARP,                     !- Zone Inside Convection Algorithm
    DOE-2,                    !- Zone Outside Convection Algorithm
    Yes;                      !- Part of Total Floor Area

ZONE,
    Z13_F1,                   !- Name
    0,                        !- Direction of Relative North
    15,                       !- X Origin
    0,                        !- Y Origin
    0,                        !- Z Origin
    1,                        !- Type
    1,                        !- Multiplier
    3,                        !- Ceiling Height
    autocalculate,            !- Volume
    autocalculate,            !- Floor Area
    TARP,                     !- Zone Inside Convection Algorithm
    DOE-2,                    !- Zone Outside Convection Algorithm
    Yes;                      !- Part of Total Floor Area

ZONE,
    Z14_F1,                   !- Name
    0,                        !- Direction of Relative North
    15,                       !- X Origin
    3,                        !- Y Origin
    0,                        !- Z Origin
    1,                        !- Type
    1,                        !- Multiplier
    3,                        !- Ceiling Height
    autocalculate,            !- Volume
    autocalculate,            !- Floor Area
    TARP,                     !- Zone Inside Convection Algorithm
    DOE-2,                    !- Zone Outside Convection Algorithm
    Yes;                      !- Part of Total Floor Area

ZONE,
    Z15_F1,                   !- Name
    0,                        !- Direction of Relative North
    12,                       !- X Origin
    0,                        !- Y Origin
    0,                        !- Z Origin
    1,                        !- Type
    1,                        !- Multiplier
    3,                        !- Ceiling Height
    autocalculate,            !- Volume
    autocalculate,            !- Floor Area
    TARP,                     !- Zone Inside Convection Algorithm
    DOE-2,                    !- Zone Outside Convection Algorithm
    Yes;                      !- Part of Total Floor Area

ZONE,
    Z16_F1,                   !- Name
    0,                        !- Direction of Relative North
    12,                       !- X Origin
    3,                        !- Y Origin
    0,                        !- Z Origin
    1,                        !- Type
    1,                        !- Multiplier
    3,                        !- Ceiling Height
    autocalculate,            !- Volume
    autocalculate,            !- Floor Area
    TARP,                     !- Zone Inside Convection Algorithm
    DOE-2,                    !- Zone Outside Convection Algorithm
    Yes;                      !- Part of Total Floor Area

ZONE,
    Z17_F1,                   !- Name
    0,                        !- Direction of Relative North
    15,                       !- X Origin
    6,                        !- Y Origin
    0,                        !- Z Origin
    1,                        !- Type
    1,                        !- Multiplier
    3,                        !- Ceiling Height
    autocalculate,            !- Volume
    autocalculate,            !- Floor Area
    TARP,                     !- Zone Inside Convection Algorithm
    DOE-2,                    !- Zone Outside Convection Algorithm
    Yes;                      !- Part of Total Floor Area

ZONE,
    Z18_F1,                   !- Name
    0,                        !- Direction of Relative North
    15,                       !- X Origin
    9,                        !- Y Origin
    0,                        !- Z Origin
    1,                        !- Type
    1,                        !- Multiplier
    3,                        !- Ceiling Height
    autocalculate,            !- Volume
    autocalculate,            !- Floor Area
    TARP,                     !- Zone Inside Convection Algorithm
    DOE-2,                    !- Zone Outside Convection Algorithm
    Yes;                      !- Part of Total Floor Area

ZONE,
    Z19_F1,                   !- Name
    0,                        !- Direction of Relative North
    12,                       !- X Origin
    6,                        !- Y Origin
    0,                        !- Z Origin
    1,                        !- Type
    1,                        !- Multiplier
    3,                        !- Ceiling Height
    autocalculate,            !- Volume
    autocalculate,            !- Floor Area
    TARP,                     !- Zone Inside Convection Algorithm
    DOE-2,                    !- Zone Outside Convection Algorithm
    Yes;                      !- Part of Total Floor Area

ZONE,
    Z20_F1,                   !- Name
    0,                        !- Direction of Relative North
    12,                       !- X Origin
    9,                        !- Y Origin
    0,                        !- Z Origin
    1,                        !- Type
    1,                        !- Multiplier
    3,                        !- Ceiling Height
    autocalculate,            !- Volume
    autocalculate,            !- Floor Area
    TARP,                     !- Zone Inside Convection Algorithm
    DOE-2,                    !- Zone Outside Convection Algorithm
    Yes;                      !- Part of Total Floor Area

ZONE,
    Z21_F1,                   !- Name
    0,                        !- Direction of Relative North
    15,                       !- X Origin
    12,                       !- Y Origin
    0,                        !- Z Origin
    1,                        !- Type
    1,                        !- Multiplier
    3,                        !- Ceiling Height
    autocalculate,            !- Volume
    autocalculate,            !- Floor Area
    TARP,                     !- Zone Inside Convection Algorithm
    DOE-2,                    !- Zone Outside Convection Algorithm
    Yes;                      !- Part of Total Floor Area

ZONE,
    Z22_F1,                   !- Name
    0,                        !- Direction of Relative North
    15,                       !- X Origin
    15,                       !- Y Origin
    0,                        !- Z Origin
    1,                        !- Type
    1,                        !- Multiplier
    3,                        !- Ceiling Height
    autocalculate,            !- Volume
    autocalculate,            !- Floor Area
    TARP,                     !- Zone Inside Convection Algorithm
    DOE-2,                    !- Zone Outside Convection Algorithm
    Yes;                      !- Part of Total Floor Area

ZONE,
    Z23_F1,                   !- Name
    0,                        !- Direction of Relative North
    12,                       !- X Origin
    12,                       !- Y Origin
    0,                        !- Z Origin
    1,                        !- Type
    1,                        !- Multiplier
    3,                        !- Ceiling Height
    autocalculate,            !- Volume
    autocalculate,            !- Floor Area
    TARP,                     !- Zone Inside Convection Algorithm
    DOE-2,                    !- Zone Outside Convection Algorithm
    Yes;                      !- Part of Total Floor Area

ZONE,
    Z24_F1,                   !- Name
    0,                        !- Direction of Relative North
    6,                        !- X Origin
    15,                       !- Y Origin
    0,                        !- Z Origin
    1,                        !- Type
    1,                        !- Multiplier
    3,                        !- Ceiling Height
    autocalculate,            !- Volume
    autocalculate,            !- Floor Area
    TARP,                     !- Zone Inside Convection Algorithm
    DOE-2,                    !- Zone Outside Convection Algorithm
    Yes;                      !- Part of Total Floor Area

ZONE,
    Z25_F1,                   !- Name
    0,                        !- Direction of Relative North
    9,                        !- X Origin
    15,                       !- Y Origin
    0,                        !- Z Origin
    1,                        !- Type
    1,                        !- Multiplier
    3,                        !- Ceiling Height
    autocalculate,            !- Volume
    autocalculate,            !- Floor Area
    TARP,                     !- Zone Inside Convection Algorithm
    DOE-2,                    !- Zone Outside Convection Algorithm
    Yes;                      !- Part of Total Floor Area

ZONE,
    Z26_F1,                   !- Name
    0,                        !- Direction of Relative North
    12,                       !- X Origin
    15,                       !- Y Origin
    0,                        !- Z Origin
    1,                        !- Type
    1,                        !- Multiplier
    3,                        !- Ceiling Height
    autocalculate,            !- Volume
    autocalculate,            !- Floor Area
    TARP,                     !- Zone Inside Convection Algorithm
    DOE-2,                    !- Zone Outside Convection Algorithm
    Yes;                      !- Part of Total Floor Area

ZONE,
    Z1_F2,                    !- Name
    0,                        !- Direction of Relative North
    0,                        !- X Origin
    0,                        !- Y Origin
    3,                        !- Z Origin
    1,                        !- Type
    1,                        !- Multiplier
    3,                        !- Ceiling Height
    autocalculate,            !- Volume
    autocalculate,            !- Floor Area
    TARP,                     !- Zone Inside Convection Algorithm
    DOE-2,                    !- Zone Outside Convection Algorithm
    Yes;                      !- Part of Total Floor Area

ZONE,
    Z2_F2,                    !- Name
    0,                        !- Direction of Relative North
    0,                        !- X Origin
    3,                        !- Y Origin
    3,                        !- Z Origin
    1,                        !- Type
    1,                        !- Multiplier
    3,                        !- Ceiling Height
    autocalculate,            !- Volume
    autocalculate,            !- Floor Area
    TARP,                     !- Zone Inside Convection Algorithm
    DOE-2,                    !- Zone Outside Convection Algorithm
    Yes;                      !- Part of Total Floor Area

ZONE,
    Z3_F2,                    !- Name
    0,                        !- Direction of Relative North
    3,                        !- X Origin
    0,                        !- Y Origin
    3,                        !- Z Origin
    1,                        !- Type
    1,                        !- Multiplier
    3,                        !- Ceiling Height
    autocalculate,            !- Volume
    autocalculate,            !- Floor Area
    TARP,                     !- Zone Inside Convection Algorithm
    DOE-2,                    !- Zone Outside Convection Algorithm
    Yes;                      !- Part of Total Floor Area

ZONE,
    Z4_F2,                    !- Name
    0,                        !- Direction of Relative North
    3,                        !- X Origin
    3,                        !- Y Origin
    3,                        !- Z Origin
    1,                        !- Type
    1,                        !- Multiplier
    3,                        !- Ceiling Height
    autocalculate,            !- Volume
    autocalculate,            !- Floor Area
    TARP,                     !- Zone Inside Convection Algorithm
    DOE-2,                    !- Zone Outside Convection Algorithm
    Yes;                      !- Part of Total Floor Area

ZONE,
    Z5_F2,                    !- Name
    0,                        !- Direction of Relative North
    0,                        !- X Origin
    6,                        !- Y Origin
    3,                        !- Z Origin
    1,                        !- Type
    1,                        !- Multiplier
    3,                        !- Ceiling Height
    autocalculate,            !- Volume
    autocalculate,            !- Floor Area
    TARP,                     !- Zone Inside Convection Algorithm
    DOE-2,                    !- Zone Outside Convection Algorithm
    Yes;                      !- Part of Total Floor Area

ZONE,
    Z6_F2,                    !- Name
    0,                        !- Direction of Relative North
    0,                        !- X Origin
    9,                        !- Y Origin
    3,                        !- Z Origin
    1,                        !- Type
    1,                        !- Multiplier
    3,                        !- Ceiling Height
    autocalculate,            !- Volume
    autocalculate,            !- Floor Area
    TARP,                     !- Zone Inside Convection Algorithm
    DOE-2,                    !- Zone Outside Convection Algorithm
    Yes;                      !- Part of Total Floor Area

ZONE,
    Z7_F2,                    !- Name
    0,                        !- Direction of Relative North
    3,                        !- X Origin
    6,                        !- Y Origin
    3,                        !- Z Origin
    1,                        !- Type
    1,                        !- Multiplier
    3,                        !- Ceiling Height
    autocalculate,            !- Volume
    autocalculate,            !- Floor Area
    TARP,                     !- Zone Inside Convection Algorithm
    DOE-2,                    !- Zone Outside Convection Algorithm
    Yes;                      !- Part of Total Floor Area

ZONE,
    Z8_F2,                    !- Name
    0,                        !- Direction of Relative North
    3,                        !- X Origin
    9,                        !- Y Origin
    3,                        !- Z Origin
    1,                        !- Type
    1,                        !- Multiplier
    3,                        !- Ceiling Height
    autocalculate,            !- Volume
    autocalculate,            !- Floor Area
    TARP,                     !- Zone Inside Convection Algorithm
    DOE-2,                    !- Zone Outside Convection Algorithm
    Yes;                      !- Part of Total Floor Area

ZONE,
    Z9_F2,                    !- Name
    0,                        !- Direction of Relative North
    0,                        !- X Origin
    12,                       !- Y Origin
    3,                        !- Z Origin
    1,                        !- Type
    1,                        !- Multiplier
    3,                        !- Ceiling Height
    autocalculate,            !- Volume
    autocalculate,            !- Floor Area
    TARP,                     !- Zone Inside Convection Algorithm
    DOE-2,                    !- Zone Outside Convection Algorithm
    Yes;                      !- Part of Total Floor Area

ZONE,
    Z10_F2,                   !- Name
    0,                        !- Direction of Relative North
    0,                        !- X Origin
    15,                       !- Y Origin
    3,                        !- Z Origin
    1,                        !- Type
    1,                        !- Multiplier
    3,                        !- Ceiling Height
    autocalculate,            !- Volume
    autocalculate,            !- Floor Area
    TARP,                     !- Zone Inside Convection Algorithm
    DOE-2,                    !- Zone Outside Convection Algorithm
    Yes;                      !- Part of Total Floor Area

ZONE,
    Z11_F2,                   !- Name
    0,                        !- Direction of Relative North
    3,                        !- X Origin
    12,                       !- Y Origin
    3,                        !- Z Origin
    1,                        !- Type
    1,                        !- Multiplier
    3,                        !- Ceiling Height
    autocalculate,            !- Volume
    autocalculate,            !- Floor Area
    TARP,                     !- Zone Inside Convection Algorithm
    DOE-2,                    !- Zone Outside Convection Algorithm
    Yes;                      !- Part of Total Floor Area

ZONE,
    Z12_F2,                   !- Name
    0,                        !- Direction of Relative North
    3,                        !- X Origin
    15,                       !- Y Origin
    3,                        !- Z Origin
    1,                        !- Type
    1,                        !- Multiplier
    3,                        !- Ceiling Height
    autocalculate,            !- Volume
    autocalculate,            !- Floor Area
    TARP,                     !- Zone Inside Convection Algorithm
    DOE-2,                    !- Zone Outside Convection Algorithm
    Yes;                      !- Part of Total Floor Area

ZONE,
    Z13_F2,                   !- Name
    0,                        !- Direction of Relative North
    15,                       !- X Origin
    0,                        !- Y Origin
    3,                        !- Z Origin
    1,                        !- Type
    1,                        !- Multiplier
    3,                        !- Ceiling Height
    autocalculate,            !- Volume
    autocalculate,            !- Floor Area
    TARP,                     !- Zone Inside Convection Algorithm
    DOE-2,                    !- Zone Outside Convection Algorithm