!- Linux Line endings 

VERSION,
    25.1.0;                   !- Version Identifier

SIMULATIONCONTROL,
    No,                       !- Do Zone Sizing Calculation
    No,                       !- Do System Sizing Calculation
    No,                       !- Do Plant Sizing Calculation
    No,                       !- Run Simulation for Sizing Periods
    Yes,                      !- Run Simulation for Weather File Run Periods
    Yes,                      !- Do HVAC Sizing Simulation for Sizing Periods
    1;                        !- Maximum Number of HVAC Sizing Simulation Passes

BUILDING,
    SmallOffice,              !- Name
    0,                        !- North Axis
    Suburbs,                  !- Terrain
    0.04,                     !- Loads Convergence Tolerance Value
    0.4,                      !- Temperature Convergence Tolerance Value
    FullExterior,             !- Solar Distribution
    25,                       !- Maximum Number of Warmup Days
    1;                        !- Minimum Number of Warmup Days

SITE:LOCATION,
    Shenzhen,                 !- Name
    22.54,                    !- Latitude
    114.05,                   !- Longitude
    8,                        !- Time Zone
    10,                       !- Elevation
    No;                       !- Keep Site Location Information

RUNPERIOD,
    Default Run Period,       !- Name
    1,                        !- Begin Month
    1,                        !- Begin Day of Month
    2024,                     !- Begin Year
    12,                       !- End Month
    31,                       !- End Day of Month
    2024,                     !- End Year
    Sunday,                   !- Day of Week for Start Day
    Yes,                      !- Use Weather File Holidays and Special Days
    Yes,                      !- Use Weather File Daylight Saving Period
    No,                       !- Apply Weekend Holiday Rule
    Yes,                      !- Use Weather File Rain Indicators
    Yes,                      !- Use Weather File Snow Indicators
    No,                       !- Treat Weather as Actual
    Hour24;                   !- First Hour Interpolation Starting Values

MATERIAL,
    Concrete_150mm,           !- Name
    MediumRough,              !- Roughness
    0.15,                     !- Thickness
    1.73,                     !- Conductivity
    2243,                     !- Density
    837,                      !- Specific Heat
    0.9,                      !- Thermal Absorptance
    0.7,                      !- Solar Absorptance
    0.7;                      !- Visible Absorptance

MATERIAL,
    Insulation_50mm,          !- Name
    MediumRough,              !- Roughness
    0.05,                     !- Thickness
    0.04,                     !- Conductivity
    100,                      !- Density
    1000,                     !- Specific Heat
    0.9,                      !- Thermal Absorptance
    0.7,                      !- Solar Absorptance
    0.7;                      !- Visible Absorptance

MATERIAL,
    Gypsum_13mm,              !- Name
    Smooth,                   !- Roughness
    0.013,                    !- Thickness
    0.16,                     !- Conductivity
    800,                      !- Density
    1090,                     !- Specific Heat
    0.9,                      !- Thermal Absorptance
    0.7,                      !- Solar Absorptance
    0.7;                      !- Visible Absorptance

WINDOWMATERIAL:SIMPLEGLAZINGSYSTEM,
    Double_Glazing,           !- Name
    2.7,                      !- UFactor
    0.6,                      !- Solar Heat Gain Coefficient
    0.8;                      !- Visible Transmittance

CONSTRUCTION,
    Ext_Wall,                 !- Name
    Gypsum_13mm,              !- Outside Layer
    Insulation_50mm,          !- Layer 2
    Concrete_150mm,           !- Layer 3
    Gypsum_13mm;              !- Layer 4

CONSTRUCTION,
    Int_Wall,                 !- Name
    Gypsum_13mm,              !- Outside Layer
    Concrete_150mm,           !- Layer 2
    Gypsum_13mm;              !- Layer 3

CONSTRUCTION,
    Floor,                    !- Name
    Concrete_150mm;           !- Outside Layer

CONSTRUCTION,
    Roof,                     !- Name
    Gypsum_13mm,              !- Outside Layer
    Insulation_50mm,          !- Layer 2
    Concrete_150mm;           !- Layer 3

CONSTRUCTION,
    Window_Constr,            !- Name
    Double_Glazing;           !- Outside Layer

GLOBALGEOMETRYRULES,
    UpperLeftCorner,          !- Starting Vertex Position
    Counterclockwise,         !- Vertex Entry Direction
    World,                    !- Coordinate System
    Relative,                 !- Daylighting Reference Point Coordinate System
    Relative;                 !- Rectangular Surface Coordinate System

ZONE,
    F1_Office10,              !- Name
    0,                        !- Direction of Relative North
    10,                       !- X Origin
    20,                       !- Y Origin
    0,                        !- Z Origin
    1,                        !- Type
    1,                        !- Multiplier
    3,                        !- Ceiling Height
    autocalculate,            !- Volume
    autocalculate,            !- Floor Area
    TARP,                     !- Zone Inside Convection Algorithm
    DOE-2,                    !- Zone Outside Convection Algorithm
    Yes;                      !- Part of Total Floor Area

ZONE,
    F1_Office11,              !- Name
    0,                        !- Direction of Relative North
    0,                        !- X Origin
    25,                       !- Y Origin
    0,                        !- Z Origin
    1,                        !- Type
    1,                        !- Multiplier
    3,                        !- Ceiling Height
    autocalculate,            !- Volume
    autocalculate,            !- Floor Area
    TARP,                     !- Zone Inside Convection Algorithm
    DOE-2,                    !- Zone Outside Convection Algorithm
    Yes;                      !- Part of Total Floor Area

ZONE,
    F1_Office12,              !- Name
    0,                        !- Direction of Relative North
    10,                       !- X Origin
    25,                       !- Y Origin
    0,                        !- Z Origin
    1,                        !- Type
    1,                        !- Multiplier
    3,                        !- Ceiling Height
    autocalculate,            !- Volume
    autocalculate,            !- Floor Area
    TARP,                     !- Zone Inside Convection Algorithm
    DOE-2,                    !- Zone Outside Convection Algorithm
    Yes;                      !- Part of Total Floor Area

ZONE,
    F1_Corridor,              !- Name
    0,                        !- Direction of Relative North
    5,                        !- X Origin
    0,                        !- Y Origin
    0,                        !- Z Origin
    1,                        !- Type
    1,                        !- Multiplier
    3,                        !- Ceiling Height
    autocalculate,            !- Volume
    autocalculate,            !- Floor Area
    TARP,                     !- Zone Inside Convection Algorithm
    DOE-2,                    !- Zone Outside Convection Algorithm
    Yes;                      !- Part of Total Floor Area

ZONE,
    F2_Office1,               !- Name
    0,                        !- Direction of Relative North
    0,                        !- X Origin
    0,                        !- Y Origin
    3,                        !- Z Origin
    1,                        !- Type
    1,                        !- Multiplier
    3,                        !- Ceiling Height
    autocalculate,            !- Volume
    autocalculate,            !- Floor Area
    TARP,                     !- Zone Inside Convection Algorithm
    DOE-2,                    !- Zone Outside Convection Algorithm
    Yes;                      !- Part of Total Floor Area

ZONE,
    F2_Office2,               !- Name
    0,                        !- Direction of Relative North
    10,                       !- X Origin
    0,                        !- Y Origin
    3,                        !- Z Origin
    1,                        !- Type
    1,                        !- Multiplier
    3,                        !- Ceiling Height
    autocalculate,            !- Volume
    autocalculate,            !- Floor Area
    TARP,                     !- Zone Inside Convection Algorithm
    DOE-2,                    !- Zone Outside Convection Algorithm
    Yes;                      !- Part of Total Floor Area

ZONE,
    F2_Office3,               !- Name
    0,                        !- Direction of Relative North
    0,                        !- X Origin
    5,                        !- Y Origin
    3,                        !- Z Origin
    1,                        !- Type
    1,                        !- Multiplier
    3,                        !- Ceiling Height
    autocalculate,            !- Volume
    autocalculate,            !- Floor Area
    TARP,                     !- Zone Inside Convection Algorithm
    DOE-2,                    !- Zone Outside Convection Algorithm
    Yes;                      !- Part of Total Floor Area

ZONE,
    F2_Office4,               !- Name
    0,                        !- Direction of Relative North
    10,                       !- X Origin
    5,                        !- Y Origin
    3,                        !- Z Origin
    1,                        !- Type
    1,                        !- Multiplier
    3,                        !- Ceiling Height
    autocalculate,            !- Volume
    autocalculate,            !- Floor Area
    TARP,                     !- Zone Inside Convection Algorithm
    DOE-2,                    !- Zone Outside Convection Algorithm
    Yes;                      !- Part of Total Floor Area

ZONE,
    F2_Office5,               !- Name
    0,                        !- Direction of Relative North
    0,                        !- X Origin
    10,                       !- Y Origin
    3,                        !- Z Origin
    1,                        !- Type
    1,                        !- Multiplier
    3,                        !- Ceiling Height
    autocalculate,            !- Volume
    autocalculate,            !- Floor Area
    TARP,                     !- Zone Inside Convection Algorithm
    DOE-2,                    !- Zone Outside Convection Algorithm
    Yes;                      !- Part of Total Floor Area

ZONE,
    F2_Office6,               !- Name
    0,                        !- Direction of Relative North
    10,                       !- X Origin
    10,                       !- Y Origin
    3,                        !- Z Origin
    1,                        !- Type
    1,                        !- Multiplier
    3,                        !- Ceiling Height
    autocalculate,            !- Volume
    autocalculate,            !- Floor Area
    TARP,                     !- Zone Inside Convection Algorithm
    DOE-2,                    !- Zone Outside Convection Algorithm
    Yes;                      !- Part of Total Floor Area

ZONE,
    F2_Office7,               !- Name
    0,                        !- Direction of Relative North
    0,                        !- X Origin
    15,                       !- Y Origin
    3,                        !- Z Origin
    1,                        !- Type
    1,                        !- Multiplier
    3,                        !- Ceiling Height
    autocalculate,            !- Volume
    autocalculate,            !- Floor Area
    TARP,                     !- Zone Inside Convection Algorithm
    DOE-2,                    !- Zone Outside Convection Algorithm
    Yes;                      !- Part of Total Floor Area

ZONE,
    F2_Office8,               !- Name
    0,                        !- Direction of Relative North
    10,                       !- X Origin
    15,                       !- Y Origin
    3,                        !- Z Origin
    1,                        !- Type
    1,                        !- Multiplier
    3,                        !- Ceiling Height
    autocalculate,            !- Volume
    autocalculate,            !- Floor Area
    TARP,                     !- Zone Inside Convection Algorithm
    DOE-2,                    !- Zone Outside Convection Algorithm
    Yes;                      !- Part of Total Floor Area

ZONE,
    F2_Office9,               !- Name
    0,                        !- Direction of Relative North
    0,                        !- X Origin
    20,                       !- Y Origin
    3,                        !- Z Origin
    1,                        !- Type
    1,                        !- Multiplier
    3,                        !- Ceiling Height
    autocalculate,            !- Volume
    autocalculate,            !- Floor Area
    TARP,                     !- Zone Inside Convection Algorithm
    DOE-2,                    !- Zone Outside Convection Algorithm
    Yes;                      !- Part of Total Floor Area

ZONE,
    F2_Office10,              !- Name
    0,                        !- Direction of Relative North
    10,                       !- X Origin
    20,                       !- Y Origin
    3,                        !- Z Origin
    1,                        !- Type
    1,                        !- Multiplier
    3,                        !- Ceiling Height
    autocalculate,            !- Volume
    autocalculate,            !- Floor Area
    TARP,                     !- Zone Inside Convection Algorithm
    DOE-2,                    !- Zone Outside Convection Algorithm
    Yes;                      !- Part of Total Floor Area

ZONE,
    F2_Office11,              !- Name
    0,                        !- Direction of Relative North
    0,                        !- X Origin
    25,                       !- Y Origin
    3,                        !- Z Origin
    1,                        !- Type
    1,                        !- Multiplier
    3,                        !- Ceiling Height
    autocalculate,            !- Volume
    autocalculate,            !- Floor Area
    TARP,                     !- Zone Inside Convection Algorithm
    DOE-2,                    !- Zone Outside Convection Algorithm
    Yes;                      !- Part of Total Floor Area

ZONE,
    F2_Office12,              !- Name
    0,                        !- Direction of Relative North
    10,                       !- X Origin
    25,                       !- Y Origin
    3,                        !- Z Origin
    1,                        !- Type
    1,                        !- Multiplier
    3,                        !- Ceiling Height
    autocalculate,            !- Volume
    autocalculate,            !- Floor Area
    TARP,                     !- Zone Inside Convection Algorithm
    DOE-2,                    !- Zone Outside Convection Algorithm
    Yes;                      !- Part of Total Floor Area

ZONE,
    F2_Corridor,              !- Name
    0,                        !- Direction of Relative North
    5,                        !- X Origin
    0,                        !- Y Origin
    3,                        !- Z Origin
    1,                        !- Type
    1,                        !- Multiplier
    3,                        !- Ceiling Height
    autocalculate,            !- Volume
    autocalculate,            !- Floor Area
    TARP,                     !- Zone Inside Convection Algorithm
    DOE-2,                    !- Zone Outside Convection Algorithm
    Yes;                      !- Part of Total Floor Area

ZONE,
    F3_Office1,               !- Name
    0,                        !- Direction of Relative North
    0,                        !- X Origin
    0,                        !- Y Origin
    6,                        !- Z Origin
    1,                        !- Type
    1,                        !- Multiplier
    3,                        !- Ceiling Height
    autocalculate,            !- Volume
    autocalculate,            !- Floor Area
    TARP,                     !- Zone Inside Convection Algorithm
    DOE-2,                    !- Zone Outside Convection Algorithm
    Yes;                      !- Part of Total Floor Area

ZONE,
    F3_Office2,               !- Name
    0,                        !- Direction of Relative North
    10,                       !- X Origin
    0,                        !- Y Origin
    6,                        !- Z Origin
    1,                        !- Type
    1,                        !- Multiplier
    3,                        !- Ceiling Height
    autocalculate,            !- Volume
    autocalculate,            !- Floor Area
    TARP,                     !- Zone Inside Convection Algorithm
    DOE-2,                    !- Zone Outside Convection Algorithm
    Yes;                      !- Part of Total Floor Area

ZONE,
    F3_Office3,               !- Name
    0,                        !- Direction of Relative North
    0,                        !- X Origin
    5,                        !- Y Origin
    6,                        !- Z Origin
    1,                        !- Type
    1,                        !- Multiplier
    3,                        !- Ceiling Height
    autocalculate,            !- Volume
    autocalculate,            !- Floor Area
    TARP,                     !- Zone Inside Convection Algorithm
    DOE-2,                    !- Zone Outside Convection Algorithm
    Yes;                      !- Part of Total Floor Area

ZONE,
    F3_Office4,               !- Name
    0,                        !- Direction of Relative North
    10,                       !- X Origin
    5,                        !- Y Origin
    6,                        !- Z Origin
    1,                        !- Type
    1,                        !- Multiplier
    3,                        !- Ceiling Height
    autocalculate,            !- Volume
    autocalculate,            !- Floor Area
    TARP,                     !- Zone Inside Convection Algorithm
    DOE-2,                    !- Zone Outside Convection Algorithm
    Yes;                      !- Part of Total Floor Area

ZONE,
    F3_Office5,               !- Name
    0,                        !- Direction of Relative North
    0,                        !- X Origin
    10,                       !- Y Origin
    6,                        !- Z Origin
    1,                        !- Type
    1,                        !- Multiplier
    3,                        !- Ceiling Height
    autocalculate,            !- Volume
    autocalculate,            !- Floor Area
    TARP,                     !- Zone Inside Convection Algorithm
    DOE-2,                    !- Zone Outside Convection Algorithm
    Yes;                      !- Part of Total Floor Area

ZONE,
    F3_Office6,               !- Name
    0,                        !- Direction of Relative North
    10,                       !- X Origin
    10,                       !- Y Origin
    6,                        !- Z Origin
    1,                        !- Type
    1,                        !- Multiplier
    3,                        !- Ceiling Height
    autocalculate,            !- Volume
    autocalculate,            !- Floor Area
    TARP,                     !- Zone Inside Convection Algorithm
    DOE-2,                    !- Zone Outside Convection Algorithm
    Yes;                      !- Part of Total Floor Area

ZONE,
    F3_Office7,               !- Name
    0,                        !- Direction of Relative North
    0,                        !- X Origin
    15,                       !- Y Origin
    6,                        !- Z Origin
    1,                        !- Type
    1,                        !- Multiplier
    3,                        !- Ceiling Height
    autocalculate,            !- Volume
    autocalculate,            !- Floor Area
    TARP,                     !- Zone Inside Convection Algorithm
    DOE-2,                    !- Zone Outside Convection Algorithm
    Yes;                      !- Part of Total Floor Area

ZONE,
    F3_Office8,               !- Name
    0,                        !- Direction of Relative North
    10,                       !- X Origin
    15,                       !- Y Origin
    6,                        !- Z Origin
    1,                        !- Type
    1,                        !- Multiplier
    3,                        !- Ceiling Height
    autocalculate,            !- Volume
    autocalculate,            !- Floor Area
    TARP,                     !- Zone Inside Convection Algorithm
    DOE-2,                    !- Zone Outside Convection Algorithm
    Yes;                      !- Part of Total Floor Area

ZONE,
    F3_Office9,               !- Name
    0,                        !- Direction of Relative North
    0,                        !- X Origin
    20,                       !- Y Origin
    6,                        !- Z Origin
    1,                        !- Type
    1,                        !- Multiplier
    3,                        !- Ceiling Height
    autocalculate,            !- Volume
    autocalculate,            !- Floor Area
    TARP,                     !- Zone Inside Convection Algorithm
    DOE-2,                    !- Zone Outside Convection Algorithm
    Yes;                      !- Part of Total Floor Area

ZONE,
    F3_Office10,              !- Name
    0,                        !- Direction of Relative North
    10,                       !- X Origin
    20,                       !- Y Origin
    6,                        !- Z Origin
    1,                        !- Type
    1,                        !- Multiplier
    3,                        !- Ceiling Height
    autocalculate,            !- Volume
    autocalculate,            !- Floor Area
    TARP,                     !- Zone Inside Convection Algorithm
    DOE-2,                    !- Zone Outside Convection Algorithm
    Yes;                      !- Part of Total Floor Area

ZONE,
    F3_Office11,              !- Name
    0,                        !- Direction of Relative North
    0,                        !- X Origin
    25,                       !- Y Origin
    6,                        !- Z Origin
    1,                        !- Type
    1,                        !- Multiplier
    3,                        !- Ceiling Height
    autocalculate,            !- Volume
    autocalculate,            !- Floor Area
    TARP,                     !- Zone Inside Convection Algorithm
    DOE-2,                    !- Zone Outside Convection Algorithm
    Yes;                      !- Part of Total Floor Area

ZONE,
    F3_Office12,              !- Name
    0,                        !- Direction of Relative North
    10,                       !- X Origin
    25,                       !- Y Origin
    6,                        !- Z Origin
    1,                        !- Type
    1,                        !- Multiplier
    3,                        !- Ceiling Height
    autocalculate,            !- Volume
    autocalculate,            !- Floor Area
    TARP,                     !- Zone Inside Convection Algorithm
    DOE-2,                    !- Zone Outside Convection Algorithm
    Yes;                      !- Part of Total Floor Area

ZONE,
    F3_Corridor,              !- Name
    0,                        !- Direction of Relative North
    5,                        !- X Origin
    0,                        !- Y Origin
    6,                        !- Z Origin
    1,                        !- Type
    1,                        !- Multiplier
    3,                        !- Ceiling Height
    autocalculate,            !- Volume
    autocalculate,            !- Floor Area
    TARP,                     !- Zone Inside Convection Algorithm
    DOE-2,                    !- Zone Outside Convection Algorithm
    Yes;                      !- Part of Total Floor Area

ZONE,
    F4_Office1,               !- Name
    0,                        !- Direction of Relative North
    0,                        !- X Origin
    0,                        !- Y Origin
    9,                        !- Z Origin
    1,                        !- Type
    1,                        !- Multiplier
    3,                        !- Ceiling Height
    autocalculate,            !- Volume
    autocalculate,            !- Floor Area
    TARP,                     !- Zone Inside Convection Algorithm
    DOE-2,                    !- Zone Outside Convection Algorithm
    Yes;                      !- Part of Total Floor Area

ZONE,
    F4_Office2,               !- Name
    0,                        !- Direction of Relative North
    10,                       !- X Origin
    0,                        !- Y Origin
    9,                        !- Z Origin
    1,                        !- Type
    1,                        !- Multiplier
    3,                        !- Ceiling Height
    autocalculate,            !- Volume
    autocalculate,            !- Floor Area
    TARP,                     !- Zone Inside Convection Algorithm
    DOE-2,                    !- Zone Outside Convection Algorithm
    Yes;                      !- Part of Total Floor Area

ZONE,
    F4_Office3,               !- Name
    0,                        !- Direction of Relative North
    0,                        !- X Origin
    5,                        !- Y Origin
    9,                        !- Z Origin
    1,                        !- Type
    1,                        !- Multiplier
    3,                        !- Ceiling Height
    autocalculate,            !- Volume
    autocalculate,            !- Floor Area
    TARP,                     !- Zone Inside Convection Algorithm
    DOE-2,                    !- Zone Outside Convection Algorithm
    Yes;                      !- Part of Total Floor Area

ZONE,
    F4_Office4,               !- Name
    0,                        !- Direction of Relative North
    10,                       !- X Origin
    5,                        !- Y Origin
    9,                        !- Z Origin
    1,                        !- Type
    1,                        !- Multiplier
    3,                        !- Ceiling Height
    autocalculate,            !- Volume
    autocalculate,            !- Floor Area
    TARP,                     !- Zone Inside Convection Algorithm
    DOE-2,                    !- Zone Outside Convection Algorithm
    Yes;                      !- Part of Total Floor Area

ZONE,
    F4_Office5,               !- Name
    0,                        !- Direction of Relative North
    0,                        !- X Origin
    10,                       !- Y Origin
    9,                        !- Z Origin
    1,                        !- Type
    1,                        !- Multiplier
    3,                        !- Ceiling Height
    autocalculate,            !- Volume
    autocalculate,            !- Floor Area
    TARP,                     !- Zone Inside Convection Algorithm
    DOE-2,                    !- Zone Outside Convection Algorithm
    Yes;                      !- Part of Total Floor Area

ZONE,
    F4_Office6,               !- Name
    0,                        !- Direction of Relative North
    10,                       !- X Origin
    10,                       !- Y Origin
    9,                        !- Z Origin
    1,                        !- Type
    1,                        !- Multiplier
    3,                        !- Ceiling Height
    autocalculate,            !- Volume
    autocalculate,            !- Floor Area
    TARP,                     !- Zone Inside Convection Algorithm
    DOE-2,                    !- Zone Outside Convection Algorithm
    Yes;                      !- Part of Total Floor Area

ZONE,
    F4_Office7,               !- Name
    0,                        !- Direction of Relative North
    0,                        !- X Origin
    15,                       !- Y Origin
    9,                        !- Z Origin
    1,                        !- Type
    1,                        !- Multiplier
    3,                        !- Ceiling Height
    autocalculate,            !- Volume
    autocalculate,            !- Floor Area
    TARP,                     !- Zone Inside Convection Algorithm
    DOE-2,                    !- Zone Outside Convection Algorithm
    Yes;                      !- Part of Total Floor Area

ZONE,
    F4_Office8,               !- Name
    0,                        !- Direction of Relative North
    10,                       !- X Origin
    15,                       !- Y Origin
    9,                        !- Z Origin
    1,                        !- Type
    1,                        !- Multiplier
    3,                        !- Ceiling Height
    autocalculate,            !- Volume
    autocalculate,            !- Floor Area
    TARP,                     !- Zone Inside Convection Algorithm
    DOE-2,                    !- Zone Outside Convection Algorithm
    Yes;                      !- Part of Total Floor Area

ZONE,
    F4_Office9,               !- Name
    0,                        !- Direction of Relative North
    0,                        !- X Origin
    20,                       !- Y Origin
    9,                        !- Z Origin
    1,                        !- Type
    1,                        !- Multiplier
    3,                        !- Ceiling Height
    autocalculate,            !- Volume
    autocalculate,            !- Floor Area
    TARP,                     !- Zone Inside Convection Algorithm
    DOE-2,                    !- Zone Outside Convection Algorithm
    Yes;                      !- Part of Total Floor Area

ZONE,
    F4_Office10,              !- Name
    0,                        !- Direction of Relative North
    10,                       !- X Origin
    20,                       !- Y Origin
    9,                        !- Z Origin
    1,                        !- Type
    1,                        !- Multiplier