!- Linux Line endings 

VERSION,
    25.1.0;                   !- Version Identifier

SIMULATIONCONTROL,
    No,                       !- Do Zone Sizing Calculation
    No,                       !- Do System Sizing Calculation
    No,                       !- Do Plant Sizing Calculation
    Yes,                      !- Run Simulation for Sizing Periods
    Yes,                      !- Run Simulation for Weather File Run Periods
    Yes,                      !- Do HVAC Sizing Simulation for Sizing Periods
    1;                        !- Maximum Number of HVAC Sizing Simulation Passes

BUILDING,
    smalloffice_21,           !- Name
    0,                        !- North Axis
    Suburbs,                  !- Terrain
    0.04,                     !- Loads Convergence Tolerance Value
    0.4,                      !- Temperature Convergence Tolerance Value
    FullExterior,             !- Solar Distribution
    25,                       !- Maximum Number of Warmup Days
    1;                        !- Minimum Number of Warmup Days

SITE:LOCATION,
    Shenzhen_CN,              !- Name
    22.55,                    !- Latitude
    114.1,                    !- Longitude
    8,                        !- Time Zone
    0;                        !- Elevation

RUNPERIOD,
    Default Run Period,       !- Name
    1,                        !- Begin Month
    1,                        !- Begin Day of Month
    ,                         !- Begin Year
    12,                       !- End Month
    31,                       !- End Day of Month
    ,                         !- End Year
    ,                         !- Day of Week for Start Day
    Yes,                      !- Use Weather File Holidays and Special Days
    Yes,                      !- Use Weather File Daylight Saving Period
    No,                       !- Apply Weekend Holiday Rule
    Yes,                      !- Use Weather File Rain Indicators
    Yes,                      !- Use Weather File Snow Indicators
    No,                       !- Treat Weather as Actual
    Hour24;                   !- First Hour Interpolation Starting Values

SCHEDULETYPELIMITS,
    Fraction,                 !- Name
    0,                        !- Lower Limit Value
    1,                        !- Upper Limit Value
    CONTINUOUS,               !- Numeric Type
    Dimensionless;            !- Unit Type

SCHEDULETYPELIMITS,
    Temperature,              !- Name
    -100,                     !- Lower Limit Value
    100,                      !- Upper Limit Value
    CONTINUOUS,               !- Numeric Type
    Temperature;              !- Unit Type

SCHEDULETYPELIMITS,
    Activity Level,           !- Name
    0,                        !- Lower Limit Value
    1000,                     !- Upper Limit Value
    CONTINUOUS,               !- Numeric Type
    Dimensionless;            !- Unit Type

SCHEDULETYPELIMITS,
    OnOff,                    !- Name
    0,                        !- Lower Limit Value
    1,                        !- Upper Limit Value
    DISCRETE,                 !- Numeric Type
    Dimensionless;            !- Unit Type

SCHEDULE:COMPACT,
    Office_Workday,           !- Name
    Fraction,                 !- Schedule Type Limits Name
    Through: 12/31,           !- Field 1
    For: Weekdays,            !- Field 2
    Until: 08:00, 0.0,        !- Field 3
    Until: 18:00, 1.0,        !- Field 4
    Until: 24:00, 0.0,        !- Field 5
    For: AllOtherDays,        !- Field 6
    Until: 24:00, 0.0;        !- Field 7

SCHEDULE:COMPACT,
    Office_Weekend,           !- Name
    Fraction,                 !- Schedule Type Limits Name
    Through: 12/31,           !- Field 1
    For: AllDays,             !- Field 2
    Until: 24:00, 0.0;        !- Field 3

SCHEDULE:COMPACT,
    People_Number_Schedule,    !- Name
    Fraction,                 !- Schedule Type Limits Name
    Through: 12/31,           !- Field 1
    For: Weekdays,            !- Field 2
    Until: 08:00, 0.0,        !- Field 3
    Until: 18:00, 1.0,        !- Field 4
    Until: 24:00, 0.0,        !- Field 5
    For: AllOtherDays,        !- Field 6
    Until: 24:00, 0.0;        !- Field 7

SCHEDULE:COMPACT,
    People_Activity_Schedule,    !- Name
    Activity Level,           !- Schedule Type Limits Name
    Through: 12/31,           !- Field 1
    For: AllDays,             !- Field 2
    Until: 24:00, 120.0;      !- Field 3

SCHEDULE:COMPACT,
    Lighting_Schedule,        !- Name
    Fraction,                 !- Schedule Type Limits Name
    Through: 12/31,           !- Field 1
    For: Weekdays,            !- Field 2
    Until: 08:00, 0.0,        !- Field 3
    Until: 18:00, 1.0,        !- Field 4
    Until: 24:00, 0.0,        !- Field 5
    For: AllOtherDays,        !- Field 6
    Until: 24:00, 0.0;        !- Field 7

SCHEDULE:COMPACT,
    HVAC_Availability_Schedule,    !- Name
    OnOff,                    !- Schedule Type Limits Name
    Through: 12/31,           !- Field 1
    For: AllDays,             !- Field 2
    Until: 24:00, 1.0;        !- Field 3

SCHEDULE:COMPACT,
    Heating_Setpoint_Schedule,    !- Name
    Temperature,              !- Schedule Type Limits Name
    Through: 12/31,           !- Field 1
    For: Weekdays,            !- Field 2
    Until: 08:00, 15.0,       !- Field 3
    Until: 18:00, 20.0,       !- Field 4
    Until: 24:00, 15.0,       !- Field 5
    For: AllOtherDays,        !- Field 6
    Until: 24:00, 15.0;       !- Field 7

SCHEDULE:COMPACT,
    Cooling_Setpoint_Schedule,    !- Name
    Temperature,              !- Schedule Type Limits Name
    Through: 12/31,           !- Field 1
    For: Weekdays,            !- Field 2
    Until: 08:00, 30.0,       !- Field 3
    Until: 18:00, 24.0,       !- Field 4
    Until: 24:00, 30.0,       !- Field 5
    For: AllOtherDays,        !- Field 6
    Until: 24:00, 30.0;       !- Field 7

MATERIAL,
    Mat_ExtWall_Stucco,       !- Name
    MediumSmooth,             !- Roughness
    0.025,                    !- Thickness
    0.72,                     !- Conductivity
    1856,                     !- Density
    840,                      !- Specific Heat
    0.9,                      !- Thermal Absorptance
    0.7,                      !- Solar Absorptance
    0.7;                      !- Visible Absorptance

MATERIAL,
    Mat_ExtWall_Insulation,    !- Name
    MediumSmooth,             !- Roughness
    0.05,                     !- Thickness
    0.04,                     !- Conductivity
    32,                       !- Density
    840,                      !- Specific Heat
    0.9,                      !- Thermal Absorptance
    0.7,                      !- Solar Absorptance
    0.7;                      !- Visible Absorptance

MATERIAL,
    Mat_ExtWall_Gypsum,       !- Name
    MediumSmooth,             !- Roughness
    0.012,                    !- Thickness
    0.16,                     !- Conductivity
    800,                      !- Density
    1090,                     !- Specific Heat
    0.9,                      !- Thermal Absorptance
    0.7,                      !- Solar Absorptance
    0.7;                      !- Visible Absorptance

MATERIAL,
    Mat_IntWall_Gypsum,       !- Name
    MediumSmooth,             !- Roughness
    0.012,                    !- Thickness
    0.16,                     !- Conductivity
    800,                      !- Density
    1090,                     !- Specific Heat
    0.9,                      !- Thermal Absorptance
    0.7,                      !- Solar Absorptance
    0.7;                      !- Visible Absorptance

MATERIAL,
    Mat_Floor_Concrete,       !- Name
    MediumSmooth,             !- Roughness
    0.15,                     !- Thickness
    1.4,                      !- Conductivity
    2240,                     !- Density
    840,                      !- Specific Heat
    0.9,                      !- Thermal Absorptance
    0.7,                      !- Solar Absorptance
    0.7;                      !- Visible Absorptance

MATERIAL,
    Mat_Roof_Membrane,        !- Name
    MediumSmooth,             !- Roughness
    0.01,                     !- Thickness
    0.16,                     !- Conductivity
    1120,                     !- Density
    1100,                     !- Specific Heat
    0.9,                      !- Thermal Absorptance
    0.7,                      !- Solar Absorptance
    0.7;                      !- Visible Absorptance

MATERIAL,
    Mat_Roof_Insulation,      !- Name
    MediumSmooth,             !- Roughness
    0.1,                      !- Thickness
    0.04,                     !- Conductivity
    32,                       !- Density
    840,                      !- Specific Heat
    0.9,                      !- Thermal Absorptance
    0.7,                      !- Solar Absorptance
    0.7;                      !- Visible Absorptance

MATERIAL,
    Mat_GroundFloor_Concrete,    !- Name
    Rough,                    !- Roughness
    0.2,                      !- Thickness
    1.8,                      !- Conductivity
    2400,                     !- Density
    840,                      !- Specific Heat
    0.9,                      !- Thermal Absorptance
    0.7,                      !- Solar Absorptance
    0.7;                      !- Visible Absorptance

WINDOWMATERIAL:SIMPLEGLAZINGSYSTEM,
    Glz_LowE_Double,          !- Name
    2.5,                      !- UFactor
    0.35,                     !- Solar Heat Gain Coefficient
    0.6;                      !- Visible Transmittance

CONSTRUCTION,
    Default_Ext_Wall,         !- Name
    Mat_ExtWall_Stucco,       !- Outside Layer
    Mat_ExtWall_Insulation,    !- Layer 2
    Mat_ExtWall_Gypsum;       !- Layer 3

CONSTRUCTION,
    Default_Int_Wall,         !- Name
    Mat_IntWall_Gypsum,       !- Outside Layer
    Mat_IntWall_Gypsum;       !- Layer 2

CONSTRUCTION,
    Default_Window,           !- Name
    Glz_LowE_Double;          !- Outside Layer

CONSTRUCTION,
    Default_GroundFloor,      !- Name
    Mat_GroundFloor_Concrete;    !- Outside Layer

CONSTRUCTION,
    Default_Roof,             !- Name
    Mat_Roof_Membrane,        !- Outside Layer
    Mat_Roof_Insulation,      !- Layer 2
    Mat_ExtWall_Gypsum;       !- Layer 3

CONSTRUCTION,
    Cons_InterFloor,          !- Name
    Mat_Floor_Concrete,       !- Outside Layer
    Mat_IntWall_Gypsum;       !- Layer 2

GLOBALGEOMETRYRULES,
    UpperLeftCorner,          !- Starting Vertex Position
    Counterclockwise,         !- Vertex Entry Direction
    World,                    !- Coordinate System
    Relative,                 !- Daylighting Reference Point Coordinate System
    Relative;                 !- Rectangular Surface Coordinate System

ZONE,
    Zone_F1_SW,               !- Name
    0,                        !- Direction of Relative North
    0,                        !- X Origin
    0,                        !- Y Origin
    0,                        !- Z Origin
    1,                        !- Type
    1,                        !- Multiplier
    autocalculate,            !- Ceiling Height
    autocalculate,            !- Volume
    autocalculate,            !- Floor Area
    TARP,                     !- Zone Inside Convection Algorithm
    DOE-2,                    !- Zone Outside Convection Algorithm
    Yes;                      !- Part of Total Floor Area

ZONE,
    Zone_F1_S,                !- Name
    0,                        !- Direction of Relative North
    4.9,                      !- X Origin
    0,                        !- Y Origin
    0,                        !- Z Origin
    1,                        !- Type
    1,                        !- Multiplier
    autocalculate,            !- Ceiling Height
    autocalculate,            !- Volume
    autocalculate,            !- Floor Area
    TARP,                     !- Zone Inside Convection Algorithm
    DOE-2,                    !- Zone Outside Convection Algorithm
    Yes;                      !- Part of Total Floor Area

ZONE,
    Zone_F1_SE,               !- Name
    0,                        !- Direction of Relative North
    10.1,                     !- X Origin
    0,                        !- Y Origin
    0,                        !- Z Origin
    1,                        !- Type
    1,                        !- Multiplier
    autocalculate,            !- Ceiling Height
    autocalculate,            !- Volume
    autocalculate,            !- Floor Area
    TARP,                     !- Zone Inside Convection Algorithm
    DOE-2,                    !- Zone Outside Convection Algorithm
    Yes;                      !- Part of Total Floor Area

ZONE,
    Zone_F1_Corridor,         !- Name
    0,                        !- Direction of Relative North
    0,                        !- X Origin
    3,                        !- Y Origin
    0,                        !- Z Origin
    1,                        !- Type
    1,                        !- Multiplier
    autocalculate,            !- Ceiling Height
    autocalculate,            !- Volume
    autocalculate,            !- Floor Area
    TARP,                     !- Zone Inside Convection Algorithm
    DOE-2,                    !- Zone Outside Convection Algorithm
    Yes;                      !- Part of Total Floor Area

ZONE,
    Zone_F1_NW,               !- Name
    0,                        !- Direction of Relative North
    0,                        !- X Origin
    5,                        !- Y Origin
    0,                        !- Z Origin
    1,                        !- Type
    1,                        !- Multiplier
    autocalculate,            !- Ceiling Height
    autocalculate,            !- Volume
    autocalculate,            !- Floor Area
    TARP,                     !- Zone Inside Convection Algorithm
    DOE-2,                    !- Zone Outside Convection Algorithm
    Yes;                      !- Part of Total Floor Area

ZONE,
    Zone_F1_N,                !- Name
    0,                        !- Direction of Relative North
    4.9,                      !- X Origin
    5,                        !- Y Origin
    0,                        !- Z Origin
    1,                        !- Type
    1,                        !- Multiplier
    autocalculate,            !- Ceiling Height
    autocalculate,            !- Volume
    autocalculate,            !- Floor Area
    TARP,                     !- Zone Inside Convection Algorithm
    DOE-2,                    !- Zone Outside Convection Algorithm
    Yes;                      !- Part of Total Floor Area

ZONE,
    Zone_F1_NE,               !- Name
    0,                        !- Direction of Relative North
    10.1,                     !- X Origin
    5,                        !- Y Origin
    0,                        !- Z Origin
    1,                        !- Type
    1,                        !- Multiplier
    autocalculate,            !- Ceiling Height
    autocalculate,            !- Volume
    autocalculate,            !- Floor Area
    TARP,                     !- Zone Inside Convection Algorithm
    DOE-2,                    !- Zone Outside Convection Algorithm
    Yes;                      !- Part of Total Floor Area

ZONE,
    Zone_F2_Corridor,         !- Name
    0,                        !- Direction of Relative North
    0,                        !- X Origin
    3,                        !- Y Origin
    3,                        !- Z Origin
    1,                        !- Type
    1,                        !- Multiplier
    autocalculate,            !- Ceiling Height
    autocalculate,            !- Volume
    autocalculate,            !- Floor Area
    TARP,                     !- Zone Inside Convection Algorithm
    DOE-2,                    !- Zone Outside Convection Algorithm
    Yes;                      !- Part of Total Floor Area

ZONE,
    Zone_F2_NW,               !- Name
    0,                        !- Direction of Relative North
    0,                        !- X Origin
    5,                        !- Y Origin
    3,                        !- Z Origin
    1,                        !- Type
    1,                        !- Multiplier
    autocalculate,            !- Ceiling Height
    autocalculate,            !- Volume
    autocalculate,            !- Floor Area
    TARP,                     !- Zone Inside Convection Algorithm
    DOE-2,                    !- Zone Outside Convection Algorithm
    Yes;                      !- Part of Total Floor Area

ZONE,
    Zone_F2_NE,               !- Name
    0,                        !- Direction of Relative North
    7.5,                      !- X Origin
    5,                        !- Y Origin
    3,                        !- Z Origin
    1,                        !- Type
    1,                        !- Multiplier
    autocalculate,            !- Ceiling Height
    autocalculate,            !- Volume
    autocalculate,            !- Floor Area
    TARP,                     !- Zone Inside Convection Algorithm
    DOE-2,                    !- Zone Outside Convection Algorithm
    Yes;                      !- Part of Total Floor Area

ZONE,
    Zone_F2_Office1,          !- Name
    0,                        !- Direction of Relative North
    0,                        !- X Origin
    0,                        !- Y Origin
    3,                        !- Z Origin
    1,                        !- Type
    1,                        !- Multiplier
    autocalculate,            !- Ceiling Height
    autocalculate,            !- Volume
    autocalculate,            !- Floor Area
    TARP,                     !- Zone Inside Convection Algorithm
    DOE-2,                    !- Zone Outside Convection Algorithm
    Yes;                      !- Part of Total Floor Area

ZONE,
    Zone_F2_Office2,          !- Name
    0,                        !- Direction of Relative North
    4.95,                     !- X Origin
    0,                        !- Y Origin
    3,                        !- Z Origin
    1,                        !- Type
    1,                        !- Multiplier
    autocalculate,            !- Ceiling Height
    autocalculate,            !- Volume
    autocalculate,            !- Floor Area
    TARP,                     !- Zone Inside Convection Algorithm
    DOE-2,                    !- Zone Outside Convection Algorithm
    Yes;                      !- Part of Total Floor Area

ZONE,
    Zone_F2_Office3,          !- Name
    0,                        !- Direction of Relative North
    7.5,                      !- X Origin
    0,                        !- Y Origin
    3,                        !- Z Origin
    1,                        !- Type
    1,                        !- Multiplier
    autocalculate,            !- Ceiling Height
    autocalculate,            !- Volume
    autocalculate,            !- Floor Area
    TARP,                     !- Zone Inside Convection Algorithm
    DOE-2,                    !- Zone Outside Convection Algorithm
    Yes;                      !- Part of Total Floor Area

ZONE,
    Zone_F2_Office4,          !- Name
    0,                        !- Direction of Relative North
    10.05,                    !- X Origin
    0,                        !- Y Origin
    3,                        !- Z Origin
    1,                        !- Type
    1,                        !- Multiplier
    autocalculate,            !- Ceiling Height
    autocalculate,            !- Volume
    autocalculate,            !- Floor Area
    TARP,                     !- Zone Inside Convection Algorithm
    DOE-2,                    !- Zone Outside Convection Algorithm
    Yes;                      !- Part of Total Floor Area

BUILDINGSURFACE:DETAILED,
    Wall_South_F1_SW,         !- Name
    Wall,                     !- Surface Type
    Default_Ext_Wall,         !- Construction Name
    Zone_F1_SW,               !- Zone Name
    ,                         !- Space Name
    Outdoors,                 !- Outside Boundary Condition
    ,                         !- Outside Boundary Condition Object
    SunExposed,               !- Sun Exposure
    WindExposed,              !- Wind Exposure
    autocalculate,            !- View Factor to Ground
    autocalculate,            !- Number of Vertices
    0,                        !- Vertex 1 Xcoordinate
    0,                        !- Vertex 1 Ycoordinate
    3,                        !- Vertex 1 Zcoordinate
    0,                        !- Vertex 2 Xcoordinate
    0,                        !- Vertex 2 Ycoordinate
    0,                        !- Vertex 2 Zcoordinate
    4.9,                      !- Vertex 3 Xcoordinate
    0,                        !- Vertex 3 Ycoordinate
    0,                        !- Vertex 3 Zcoordinate
    4.9,                      !- Vertex 4 Xcoordinate
    0,                        !- Vertex 4 Ycoordinate
    3;                        !- Vertex 4 Zcoordinate

BUILDINGSURFACE:DETAILED,
    Wall_West_F1_SW,          !- Name
    Wall,                     !- Surface Type
    Default_Ext_Wall,         !- Construction Name
    Zone_F1_SW,               !- Zone Name
    ,                         !- Space Name
    Outdoors,                 !- Outside Boundary Condition
    ,                         !- Outside Boundary Condition Object
    SunExposed,               !- Sun Exposure
    WindExposed,              !- Wind Exposure
    autocalculate,            !- View Factor to Ground
    autocalculate,            !- Number of Vertices
    0,                        !- Vertex 1 Xcoordinate
    3,                        !- Vertex 1 Ycoordinate
    3,                        !- Vertex 1 Zcoordinate
    0,                        !- Vertex 2 Xcoordinate
    3,                        !- Vertex 2 Ycoordinate
    0,                        !- Vertex 2 Zcoordinate
    0,                        !- Vertex 3 Xcoordinate
    0,                        !- Vertex 3 Ycoordinate
    0,                        !- Vertex 3 Zcoordinate
    0,                        !- Vertex 4 Xcoordinate
    0,                        !- Vertex 4 Ycoordinate
    3;                        !- Vertex 4 Zcoordinate

BUILDINGSURFACE:DETAILED,
    Wall_East_F1_SW,          !- Name
    Wall,                     !- Surface Type
    Default_Int_Wall,         !- Construction Name
    Zone_F1_SW,               !- Zone Name
    ,                         !- Space Name
    Surface,                  !- Outside Boundary Condition
    Wall_West_F1_S,           !- Outside Boundary Condition Object
    NoSun,                    !- Sun Exposure
    NoWind,                   !- Wind Exposure
    autocalculate,            !- View Factor to Ground
    autocalculate,            !- Number of Vertices
    4.9,                      !- Vertex 1 Xcoordinate
    0,                        !- Vertex 1 Ycoordinate
    3,                        !- Vertex 1 Zcoordinate
    4.9,                      !- Vertex 2 Xcoordinate
    0,                        !- Vertex 2 Ycoordinate
    0,                        !- Vertex 2 Zcoordinate
    4.9,                      !- Vertex 3 Xcoordinate
    3,                        !- Vertex 3 Ycoordinate
    0,                        !- Vertex 3 Zcoordinate
    4.9,                      !- Vertex 4 Xcoordinate
    3,                        !- Vertex 4 Ycoordinate
    3;                        !- Vertex 4 Zcoordinate

BUILDINGSURFACE:DETAILED,
    Wall_North_F1_SW,         !- Name
    Wall,                     !- Surface Type
    Default_Int_Wall,         !- Construction Name
    Zone_F1_SW,               !- Zone Name
    ,                         !- Space Name
    Surface,                  !- Outside Boundary Condition
    Wall_South_F1_Cor_SW,     !- Outside Boundary Condition Object
    NoSun,                    !- Sun Exposure
    NoWind,                   !- Wind Exposure
    autocalculate,            !- View Factor to Ground
    autocalculate,            !- Number of Vertices
    4.9,                      !- Vertex 1 Xcoordinate
    3,                        !- Vertex 1 Ycoordinate
    3,                        !- Vertex 1 Zcoordinate
    4.9,                      !- Vertex 2 Xcoordinate
    3,                        !- Vertex 2 Ycoordinate
    0,                        !- Vertex 2 Zcoordinate
    0,                        !- Vertex 3 Xcoordinate
    3,                        !- Vertex 3 Ycoordinate
    0,                        !- Vertex 3 Zcoordinate
    0,                        !- Vertex 4 Xcoordinate
    3,                        !- Vertex 4 Ycoordinate
    3;                        !- Vertex 4 Zcoordinate

BUILDINGSURFACE:DETAILED,
    Floor_F1_SW,              !- Name
    Floor,                    !- Surface Type
    Default_GroundFloor,      !- Construction Name
    Zone_F1_SW,               !- Zone Name
    ,                         !- Space Name
    Ground,                   !- Outside Boundary Condition
    ,                         !- Outside Boundary Condition Object
    NoSun,                    !- Sun Exposure
    NoWind,                   !- Wind Exposure
    autocalculate,            !- View Factor to Ground
    autocalculate,            !- Number of Vertices
    0,                        !- Vertex 1 Xcoordinate
    0,                        !- Vertex 1 Ycoordinate
    0,                        !- Vertex 1 Zcoordinate
    0,                        !- Vertex 2 Xcoordinate
    3,                        !- Vertex 2 Ycoordinate
    0,                        !- Vertex 2 Zcoordinate
    4.9,                      !- Vertex 3 Xcoordinate
    3,                        !- Vertex 3 Ycoordinate
    0,                        !- Vertex 3 Zcoordinate
    4.9,                      !- Vertex 4 Xcoordinate
    0,                        !- Vertex 4 Ycoordinate
    0;                        !- Vertex 4 Zcoordinate

BUILDINGSURFACE:DETAILED,
    C_F1_SW_x0_4_90,          !- Name
    Ceiling,                  !- Surface Type
    Cons_InterFloor,          !- Construction Name
    Zone_F1_SW,               !- Zone Name
    ,                         !- Space Name
    Surface,                  !- Outside Boundary Condition
    Floor_F2_Office1_x0_4_90,    !- Outside Boundary Condition Object
    NoSun,                    !- Sun Exposure
    NoWind,                   !- Wind Exposure
    autocalculate,            !- View Factor to Ground
    autocalculate,            !- Number of Vertices
    0,                        !- Vertex 1 Xcoordinate
    3,                        !- Vertex 1 Ycoordinate
    3,                        !- Vertex 1 Zcoordinate
    0,                        !- Vertex 2 Xcoordinate
    0,                        !- Vertex 2 Ycoordinate
    3,                        !- Vertex 2 Zcoordinate
    4.9,                      !- Vertex 3 Xcoordinate
    0,                        !- Vertex 3 Ycoordinate
    3,                        !- Vertex 3 Zcoordinate
    4.9,                      !- Vertex 4 Xcoordinate
    3,                        !- Vertex 4 Ycoordinate
    3;                        !- Vertex 4 Zcoordinate

BUILDINGSURFACE:DETAILED,
    Wall_South_F1_S,          !- Name
    Wall,                     !- Surface Type
    Default_Ext_Wall,         !- Construction Name
    Zone_F1_S,                !- Zone Name
    ,                         !- Space Name
    Outdoors,                 !- Outside Boundary Condition
    ,                         !- Outside Boundary Condition Object
    SunExposed,               !- Sun Exposure
    WindExposed,              !- Wind Exposure
    autocalculate,            !- View Factor to Ground
    autocalculate,            !- Number of Vertices
    4.9,                      !- Vertex 1 Xcoordinate
    0,                        !- Vertex 1 Ycoordinate
    3,                        !- Vertex 1 Zcoordinate
    4.9,                      !- Vertex 2 Xcoordinate
    0,                        !- Vertex 2 Ycoordinate
    0,                        !- Vertex 2 Zcoordinate
    10.1,                     !- Vertex 3 Xcoordinate
    0,                        !- Vertex 3 Ycoordinate
    0,                        !- Vertex 3 Zcoordinate
    10.1,                     !- Vertex 4 Xcoordinate
    0,                        !- Vertex 4 Ycoordinate
    3;                        !- Vertex 4 Zcoordinate

BUILDINGSURFACE:DETAILED,
    Wall_West_F1_S,           !- Name
    Wall,                     !- Surface Type
    Default_Int_Wall,         !- Construction Name
    Zone_F1_S,                !- Zone Name
    ,                         !- Space Name
    Surface,                  !- Outside Boundary Condition
    Wall_East_F1_SW,          !- Outside Boundary Condition Object
    NoSun,                    !- Sun Exposure
    NoWind,                   !- Wind Exposure
    autocalculate,            !- View Factor to Ground
    autocalculate,            !- Number of Vertices
    4.9,                      !- Vertex 1 Xcoordinate
    3,                        !- Vertex 1 Ycoordinate
    3,                        !- Vertex 1 Zcoordinate
    4.9,                      !- Vertex 2 Xcoordinate
    3,                        !- Vertex 2 Ycoordinate
    0,                        !- Vertex 2 Zcoordinate
    4.9,                      !- Vertex 3 Xcoordinate
    0,                        !- Vertex 3 Ycoordinate
    0,                        !- Vertex 3 Zcoordinate
    4.9,                      !- Vertex 4 Xcoordinate
    0,                        !- Vertex 4 Ycoordinate
    3;                        !- Vertex 4 Zcoordinate

BUILDINGSURFACE:DETAILED,
    Wall_East_F1_S,           !- Name
    Wall,                     !- Surface Type
    Default_Int_Wall,         !- Construction Name
    Zone_F1_S,                !- Zone Name
    ,                         !- Space Name
    Surface,                  !- Outside Boundary Condition
    Wall_West_F1_SE,          !- Outside Boundary Condition Object
    NoSun,                    !- Sun Exposure
    NoWind,                   !- Wind Exposure
    autocalculate,            !- View Factor to Ground
    autocalculate,            !- Number of Vertices