!- Windows Line endings 

VERSION,
    25.1.0;                   !- Version Identifier

SIMULATIONCONTROL,
    No,                       !- Do Zone Sizing Calculation
    No,                       !- Do System Sizing Calculation
    No,                       !- Do Plant Sizing Calculation
    Yes,                      !- Run Simulation for Sizing Periods
    Yes,                      !- Run Simulation for Weather File Run Periods
    Yes,                      !- Do HVAC Sizing Simulation for Sizing Periods
    1;                        !- Maximum Number of HVAC Sizing Simulation Passes

BUILDING,
    Smalloffice_20,           !- Name
    0,                        !- North Axis
    Suburbs,                  !- Terrain
    0.04,                     !- Loads Convergence Tolerance Value
    0.4,                      !- Temperature Convergence Tolerance Value
    FullExterior,             !- Solar Distribution
    25,                       !- Maximum Number of Warmup Days
    1;                        !- Minimum Number of Warmup Days

SITE:LOCATION,
    Shenzhen_CN,              !- Name
    22.54,                    !- Latitude
    114.06,                   !- Longitude
    8,                        !- Time Zone
    0;                        !- Elevation

RUNPERIOD,
    Default Run Period,       !- Name
    1,                        !- Begin Month
    1,                        !- Begin Day of Month
    ,                         !- Begin Year
    12,                       !- End Month
    31,                       !- End Day of Month
    ,                         !- End Year
    ,                         !- Day of Week for Start Day
    Yes,                      !- Use Weather File Holidays and Special Days
    Yes,                      !- Use Weather File Daylight Saving Period
    No,                       !- Apply Weekend Holiday Rule
    Yes,                      !- Use Weather File Rain Indicators
    Yes,                      !- Use Weather File Snow Indicators
    No,                       !- Treat Weather as Actual
    Hour24;                   !- First Hour Interpolation Starting Values

SCHEDULETYPELIMITS,
    Fraction,                 !- Name
    0,                        !- Lower Limit Value
    1,                        !- Upper Limit Value
    CONTINUOUS,               !- Numeric Type
    Dimensionless;            !- Unit Type

SCHEDULETYPELIMITS,
    Temperature,              !- Name
    -100,                     !- Lower Limit Value
    100,                      !- Upper Limit Value
    CONTINUOUS,               !- Numeric Type
    Temperature;              !- Unit Type

SCHEDULETYPELIMITS,
    Activity Level,           !- Name
    0,                        !- Lower Limit Value
    1000,                     !- Upper Limit Value
    CONTINUOUS,               !- Numeric Type
    Dimensionless;            !- Unit Type

SCHEDULETYPELIMITS,
    OnOff,                    !- Name
    0,                        !- Lower Limit Value
    1,                        !- Upper Limit Value
    DISCRETE,                 !- Numeric Type
    Dimensionless;            !- Unit Type

SCHEDULE:COMPACT,
    Office_Workday,           !- Name
    Fraction,                 !- Schedule Type Limits Name
    Through: 12/31,           !- Field 1
    For: Weekdays,            !- Field 2
    Until: 07:00, 0.1,        !- Field 3
    Until: 09:00, 0.8,        !- Field 4
    Until: 18:00, 1.0,        !- Field 5
    Until: 20:00, 0.5,        !- Field 6
    Until: 24:00, 0.1,        !- Field 7
    For: AllOtherDays,        !- Field 8
    Until: 24:00, 0.1;        !- Field 9

SCHEDULE:COMPACT,
    Office_Weekend,           !- Name
    Fraction,                 !- Schedule Type Limits Name
    Through: 12/31,           !- Field 1
    For: Weekends,            !- Field 2
    Until: 24:00, 0.1,        !- Field 3
    For: Holidays,            !- Field 4
    Until: 24:00, 0.1,        !- Field 5
    For: AllOtherDays,        !- Field 6
    Until: 24:00, 0.1;        !- Field 7

SCHEDULE:COMPACT,
    Office_Lighting,          !- Name
    Fraction,                 !- Schedule Type Limits Name
    Through: 12/31,           !- Field 1
    For: Weekdays,            !- Field 2
    Until: 07:00, 0.1,        !- Field 3
    Until: 09:00, 0.8,        !- Field 4
    Until: 18:00, 1.0,        !- Field 5
    Until: 20:00, 0.5,        !- Field 6
    Until: 24:00, 0.1,        !- Field 7
    For: AllOtherDays,        !- Field 8
    Until: 24:00, 0.1;        !- Field 9

SCHEDULE:COMPACT,
    Office_HVAC,              !- Name
    OnOff,                    !- Schedule Type Limits Name
    Through: 12/31,           !- Field 1
    For: AllDays,             !- Field 2
    Until: 24:00, 1.0;        !- Field 3

SCHEDULE:COMPACT,
    Office_Thermostat_Heating,    !- Name
    Temperature,              !- Schedule Type Limits Name
    Through: 12/31,           !- Field 1
    For: AllDays,             !- Field 2
    Until: 24:00, 20.0;       !- Field 3

SCHEDULE:COMPACT,
    Office_Thermostat_Cooling,    !- Name
    Temperature,              !- Schedule Type Limits Name
    Through: 12/31,           !- Field 1
    For: AllDays,             !- Field 2
    Until: 24:00, 24.0;       !- Field 3

SCHEDULE:COMPACT,
    Office_Activity_Level,    !- Name
    Activity Level,           !- Schedule Type Limits Name
    Through: 12/31,           !- Field 1
    For: AllDays,             !- Field 2
    Until: 24:00, 120.0;      !- Field 3

MATERIAL,
    Stucco,                   !- Name
    MediumSmooth,             !- Roughness
    0.0254,                   !- Thickness
    0.72,                     !- Conductivity
    1856,                     !- Density
    840,                      !- Specific Heat
    0.9,                      !- Thermal Absorptance
    0.7,                      !- Solar Absorptance
    0.7;                      !- Visible Absorptance

MATERIAL,
    Gypsum_Board,             !- Name
    Smooth,                   !- Roughness
    0.0127,                   !- Thickness
    0.16,                     !- Conductivity
    800,                      !- Density
    1090,                     !- Specific Heat
    0.9,                      !- Thermal Absorptance
    0.7,                      !- Solar Absorptance
    0.7;                      !- Visible Absorptance

MATERIAL:NOMASS,
    R13_Insulation,           !- Name
    Rough,                    !- Roughness
    2.29,                     !- Thermal Resistance
    0.9,                      !- Thermal Absorptance
    0.7,                      !- Solar Absorptance
    0.7;                      !- Visible Absorptance

MATERIAL:NOMASS,
    R8_Insulation,            !- Name
    Rough,                    !- Roughness
    1.41,                     !- Thermal Resistance
    0.9,                      !- Thermal Absorptance
    0.7,                      !- Solar Absorptance
    0.7;                      !- Visible Absorptance

WINDOWMATERIAL:SIMPLEGLAZINGSYSTEM,
    Simple_Window,            !- Name
    2.5,                      !- UFactor
    0.4,                      !- Solar Heat Gain Coefficient
    0.6;                      !- Visible Transmittance

CONSTRUCTION,
    Default_Ext_Wall,         !- Name
    Stucco,                   !- Outside Layer
    R13_Insulation,           !- Layer 2
    Gypsum_Board;             !- Layer 3

CONSTRUCTION,
    Default_Int_Wall,         !- Name
    Gypsum_Board,             !- Outside Layer
    R8_Insulation,            !- Layer 2
    Gypsum_Board;             !- Layer 3

CONSTRUCTION,
    Default_Floor,            !- Name
    Gypsum_Board,             !- Outside Layer
    R8_Insulation,            !- Layer 2
    Gypsum_Board;             !- Layer 3

CONSTRUCTION,
    Default_Ceiling,          !- Name
    Gypsum_Board,             !- Outside Layer
    R8_Insulation,            !- Layer 2
    Gypsum_Board;             !- Layer 3

CONSTRUCTION,
    Default_Roof,             !- Name
    Stucco,                   !- Outside Layer
    R13_Insulation,           !- Layer 2
    Gypsum_Board;             !- Layer 3

CONSTRUCTION,
    Default_GroundFloor,      !- Name
    Gypsum_Board,             !- Outside Layer
    R8_Insulation,            !- Layer 2
    Gypsum_Board;             !- Layer 3

CONSTRUCTION,
    Default_Window,           !- Name
    Simple_Window;            !- Outside Layer

GLOBALGEOMETRYRULES,
    UpperLeftCorner,          !- Starting Vertex Position
    Counterclockwise,         !- Vertex Entry Direction
    World,                    !- Coordinate System
    Relative,                 !- Daylighting Reference Point Coordinate System
    Relative;                 !- Rectangular Surface Coordinate System

ZONE,
    F1_S1,                    !- Name
    0,                        !- Direction of Relative North
    0,                        !- X Origin
    0,                        !- Y Origin
    0,                        !- Z Origin
    1,                        !- Type
    1,                        !- Multiplier
    autocalculate,            !- Ceiling Height
    autocalculate,            !- Volume
    autocalculate,            !- Floor Area
    TARP,                     !- Zone Inside Convection Algorithm
    DOE-2,                    !- Zone Outside Convection Algorithm
    Yes;                      !- Part of Total Floor Area

ZONE,
    F1_S2,                    !- Name
    0,                        !- Direction of Relative North
    5,                        !- X Origin
    0,                        !- Y Origin
    0,                        !- Z Origin
    1,                        !- Type
    1,                        !- Multiplier
    autocalculate,            !- Ceiling Height
    autocalculate,            !- Volume
    autocalculate,            !- Floor Area
    TARP,                     !- Zone Inside Convection Algorithm
    DOE-2,                    !- Zone Outside Convection Algorithm
    Yes;                      !- Part of Total Floor Area

ZONE,
    F1_S3,                    !- Name
    0,                        !- Direction of Relative North
    10,                       !- X Origin
    0,                        !- Y Origin
    0,                        !- Z Origin
    1,                        !- Type
    1,                        !- Multiplier
    autocalculate,            !- Ceiling Height
    autocalculate,            !- Volume
    autocalculate,            !- Floor Area
    TARP,                     !- Zone Inside Convection Algorithm
    DOE-2,                    !- Zone Outside Convection Algorithm
    Yes;                      !- Part of Total Floor Area

ZONE,
    F1_Corridor,              !- Name
    0,                        !- Direction of Relative North
    0,                        !- X Origin
    3,                        !- Y Origin
    0,                        !- Z Origin
    1,                        !- Type
    1,                        !- Multiplier
    autocalculate,            !- Ceiling Height
    autocalculate,            !- Volume
    autocalculate,            !- Floor Area
    TARP,                     !- Zone Inside Convection Algorithm
    DOE-2,                    !- Zone Outside Convection Algorithm
    Yes;                      !- Part of Total Floor Area

ZONE,
    F1_N1,                    !- Name
    0,                        !- Direction of Relative North
    0,                        !- X Origin
    5,                        !- Y Origin
    0,                        !- Z Origin
    1,                        !- Type
    1,                        !- Multiplier
    autocalculate,            !- Ceiling Height
    autocalculate,            !- Volume
    autocalculate,            !- Floor Area
    TARP,                     !- Zone Inside Convection Algorithm
    DOE-2,                    !- Zone Outside Convection Algorithm
    Yes;                      !- Part of Total Floor Area

ZONE,
    F1_N2,                    !- Name
    0,                        !- Direction of Relative North
    5,                        !- X Origin
    5,                        !- Y Origin
    0,                        !- Z Origin
    1,                        !- Type
    1,                        !- Multiplier
    autocalculate,            !- Ceiling Height
    autocalculate,            !- Volume
    autocalculate,            !- Floor Area
    TARP,                     !- Zone Inside Convection Algorithm
    DOE-2,                    !- Zone Outside Convection Algorithm
    Yes;                      !- Part of Total Floor Area

ZONE,
    F1_N3,                    !- Name
    0,                        !- Direction of Relative North
    10,                       !- X Origin
    5,                        !- Y Origin
    0,                        !- Z Origin
    1,                        !- Type
    1,                        !- Multiplier
    autocalculate,            !- Ceiling Height
    autocalculate,            !- Volume
    autocalculate,            !- Floor Area
    TARP,                     !- Zone Inside Convection Algorithm
    DOE-2,                    !- Zone Outside Convection Algorithm
    Yes;                      !- Part of Total Floor Area

ZONE,
    F2_S1,                    !- Name
    0,                        !- Direction of Relative North
    0,                        !- X Origin
    0,                        !- Y Origin
    3.6,                      !- Z Origin
    1,                        !- Type
    1,                        !- Multiplier
    autocalculate,            !- Ceiling Height
    autocalculate,            !- Volume
    autocalculate,            !- Floor Area
    TARP,                     !- Zone Inside Convection Algorithm
    DOE-2,                    !- Zone Outside Convection Algorithm
    Yes;                      !- Part of Total Floor Area

ZONE,
    F2_S2,                    !- Name
    0,                        !- Direction of Relative North
    5,                        !- X Origin
    0,                        !- Y Origin
    3.6,                      !- Z Origin
    1,                        !- Type
    1,                        !- Multiplier
    autocalculate,            !- Ceiling Height
    autocalculate,            !- Volume
    autocalculate,            !- Floor Area
    TARP,                     !- Zone Inside Convection Algorithm
    DOE-2,                    !- Zone Outside Convection Algorithm
    Yes;                      !- Part of Total Floor Area

ZONE,
    F2_S3,                    !- Name
    0,                        !- Direction of Relative North
    10,                       !- X Origin
    0,                        !- Y Origin
    3.6,                      !- Z Origin
    1,                        !- Type
    1,                        !- Multiplier
    autocalculate,            !- Ceiling Height
    autocalculate,            !- Volume
    autocalculate,            !- Floor Area
    TARP,                     !- Zone Inside Convection Algorithm
    DOE-2,                    !- Zone Outside Convection Algorithm
    Yes;                      !- Part of Total Floor Area

ZONE,
    F2_Corridor,              !- Name
    0,                        !- Direction of Relative North
    0,                        !- X Origin
    3,                        !- Y Origin
    3.6,                      !- Z Origin
    1,                        !- Type
    1,                        !- Multiplier
    autocalculate,            !- Ceiling Height
    autocalculate,            !- Volume
    autocalculate,            !- Floor Area
    TARP,                     !- Zone Inside Convection Algorithm
    DOE-2,                    !- Zone Outside Convection Algorithm
    Yes;                      !- Part of Total Floor Area

ZONE,
    F2_N1,                    !- Name
    0,                        !- Direction of Relative North
    0,                        !- X Origin
    5,                        !- Y Origin
    3.6,                      !- Z Origin
    1,                        !- Type
    1,                        !- Multiplier
    autocalculate,            !- Ceiling Height
    autocalculate,            !- Volume
    autocalculate,            !- Floor Area
    TARP,                     !- Zone Inside Convection Algorithm
    DOE-2,                    !- Zone Outside Convection Algorithm
    Yes;                      !- Part of Total Floor Area

ZONE,
    F2_N2,                    !- Name
    0,                        !- Direction of Relative North
    3.75,                     !- X Origin
    5,                        !- Y Origin
    3.6,                      !- Z Origin
    1,                        !- Type
    1,                        !- Multiplier
    autocalculate,            !- Ceiling Height
    autocalculate,            !- Volume
    autocalculate,            !- Floor Area
    TARP,                     !- Zone Inside Convection Algorithm
    DOE-2,                    !- Zone Outside Convection Algorithm
    Yes;                      !- Part of Total Floor Area

ZONE,
    F2_N3,                    !- Name
    0,                        !- Direction of Relative North
    7.5,                      !- X Origin
    5,                        !- Y Origin
    3.6,                      !- Z Origin
    1,                        !- Type
    1,                        !- Multiplier
    autocalculate,            !- Ceiling Height
    autocalculate,            !- Volume
    autocalculate,            !- Floor Area
    TARP,                     !- Zone Inside Convection Algorithm
    DOE-2,                    !- Zone Outside Convection Algorithm
    Yes;                      !- Part of Total Floor Area

ZONE,
    F2_N4,                    !- Name
    0,                        !- Direction of Relative North
    11.25,                    !- X Origin
    5,                        !- Y Origin
    3.6,                      !- Z Origin
    1,                        !- Type
    1,                        !- Multiplier
    autocalculate,            !- Ceiling Height
    autocalculate,            !- Volume
    autocalculate,            !- Floor Area
    TARP,                     !- Zone Inside Convection Algorithm
    DOE-2,                    !- Zone Outside Convection Algorithm
    Yes;                      !- Part of Total Floor Area

ZONE,
    F3_S1,                    !- Name
    0,                        !- Direction of Relative North
    0,                        !- X Origin
    0,                        !- Y Origin
    7.2,                      !- Z Origin
    1,                        !- Type
    1,                        !- Multiplier
    autocalculate,            !- Ceiling Height
    autocalculate,            !- Volume
    autocalculate,            !- Floor Area
    TARP,                     !- Zone Inside Convection Algorithm
    DOE-2,                    !- Zone Outside Convection Algorithm
    Yes;                      !- Part of Total Floor Area

ZONE,
    F3_S2,                    !- Name
    0,                        !- Direction of Relative North
    7.5,                      !- X Origin
    0,                        !- Y Origin
    7.2,                      !- Z Origin
    1,                        !- Type
    1,                        !- Multiplier
    autocalculate,            !- Ceiling Height
    autocalculate,            !- Volume
    autocalculate,            !- Floor Area
    TARP,                     !- Zone Inside Convection Algorithm
    DOE-2,                    !- Zone Outside Convection Algorithm
    Yes;                      !- Part of Total Floor Area

ZONE,
    F3_Corridor,              !- Name
    0,                        !- Direction of Relative North
    0,                        !- X Origin
    3,                        !- Y Origin
    7.2,                      !- Z Origin
    1,                        !- Type
    1,                        !- Multiplier
    autocalculate,            !- Ceiling Height
    autocalculate,            !- Volume
    autocalculate,            !- Floor Area
    TARP,                     !- Zone Inside Convection Algorithm
    DOE-2,                    !- Zone Outside Convection Algorithm
    Yes;                      !- Part of Total Floor Area

ZONE,
    F3_N1,                    !- Name
    0,                        !- Direction of Relative North
    0,                        !- X Origin
    5,                        !- Y Origin
    7.2,                      !- Z Origin
    1,                        !- Type
    1,                        !- Multiplier
    autocalculate,            !- Ceiling Height
    autocalculate,            !- Volume
    autocalculate,            !- Floor Area
    TARP,                     !- Zone Inside Convection Algorithm
    DOE-2,                    !- Zone Outside Convection Algorithm
    Yes;                      !- Part of Total Floor Area

BUILDINGSURFACE:DETAILED,
    F1_S1_South_Wall,         !- Name
    Wall,                     !- Surface Type
    Default_Ext_Wall,         !- Construction Name
    F1_S1,                    !- Zone Name
    ,                         !- Space Name
    Outdoors,                 !- Outside Boundary Condition
    ,                         !- Outside Boundary Condition Object
    SunExposed,               !- Sun Exposure
    WindExposed,              !- Wind Exposure
    autocalculate,            !- View Factor to Ground
    autocalculate,            !- Number of Vertices
    0,                        !- Vertex 1 Xcoordinate
    0,                        !- Vertex 1 Ycoordinate
    3.6,                      !- Vertex 1 Zcoordinate
    0,                        !- Vertex 2 Xcoordinate
    0,                        !- Vertex 2 Ycoordinate
    0,                        !- Vertex 2 Zcoordinate
    5,                        !- Vertex 3 Xcoordinate
    0,                        !- Vertex 3 Ycoordinate
    0,                        !- Vertex 3 Zcoordinate
    5,                        !- Vertex 4 Xcoordinate
    0,                        !- Vertex 4 Ycoordinate
    3.6;                      !- Vertex 4 Zcoordinate

BUILDINGSURFACE:DETAILED,
    F1_S1_West_Wall,          !- Name
    Wall,                     !- Surface Type
    Default_Ext_Wall,         !- Construction Name
    F1_S1,                    !- Zone Name
    ,                         !- Space Name
    Outdoors,                 !- Outside Boundary Condition
    ,                         !- Outside Boundary Condition Object
    SunExposed,               !- Sun Exposure
    WindExposed,              !- Wind Exposure
    autocalculate,            !- View Factor to Ground
    autocalculate,            !- Number of Vertices
    0,                        !- Vertex 1 Xcoordinate
    3,                        !- Vertex 1 Ycoordinate
    3.6,                      !- Vertex 1 Zcoordinate
    0,                        !- Vertex 2 Xcoordinate
    3,                        !- Vertex 2 Ycoordinate
    0,                        !- Vertex 2 Zcoordinate
    0,                        !- Vertex 3 Xcoordinate
    0,                        !- Vertex 3 Ycoordinate
    0,                        !- Vertex 3 Zcoordinate
    0,                        !- Vertex 4 Xcoordinate
    0,                        !- Vertex 4 Ycoordinate
    3.6;                      !- Vertex 4 Zcoordinate

BUILDINGSURFACE:DETAILED,
    F1_S1_Floor,              !- Name
    Floor,                    !- Surface Type
    Default_GroundFloor,      !- Construction Name
    F1_S1,                    !- Zone Name
    ,                         !- Space Name
    Ground,                   !- Outside Boundary Condition
    ,                         !- Outside Boundary Condition Object
    NoSun,                    !- Sun Exposure
    NoWind,                   !- Wind Exposure
    autocalculate,            !- View Factor to Ground
    autocalculate,            !- Number of Vertices
    0,                        !- Vertex 1 Xcoordinate
    0,                        !- Vertex 1 Ycoordinate
    0,                        !- Vertex 1 Zcoordinate
    0,                        !- Vertex 2 Xcoordinate
    3,                        !- Vertex 2 Ycoordinate
    0,                        !- Vertex 2 Zcoordinate
    5,                        !- Vertex 3 Xcoordinate
    3,                        !- Vertex 3 Ycoordinate
    0,                        !- Vertex 3 Zcoordinate
    5,                        !- Vertex 4 Xcoordinate
    0,                        !- Vertex 4 Ycoordinate
    0;                        !- Vertex 4 Zcoordinate

BUILDINGSURFACE:DETAILED,
    F1_S1_East_Wall,          !- Name
    Wall,                     !- Surface Type
    Default_Int_Wall,         !- Construction Name
    F1_S1,                    !- Zone Name
    ,                         !- Space Name
    Surface,                  !- Outside Boundary Condition
    F1_S2_West_Wall,          !- Outside Boundary Condition Object
    NoSun,                    !- Sun Exposure
    NoWind,                   !- Wind Exposure
    autocalculate,            !- View Factor to Ground
    autocalculate,            !- Number of Vertices
    5,                        !- Vertex 1 Xcoordinate
    0,                        !- Vertex 1 Ycoordinate
    3.6,                      !- Vertex 1 Zcoordinate
    5,                        !- Vertex 2 Xcoordinate
    0,                        !- Vertex 2 Ycoordinate
    0,                        !- Vertex 2 Zcoordinate
    5,                        !- Vertex 3 Xcoordinate
    3,                        !- Vertex 3 Ycoordinate
    0,                        !- Vertex 3 Zcoordinate
    5,                        !- Vertex 4 Xcoordinate
    3,                        !- Vertex 4 Ycoordinate
    3.6;                      !- Vertex 4 Zcoordinate

BUILDINGSURFACE:DETAILED,
    F1_S1_North_Wall,         !- Name
    Wall,                     !- Surface Type
    Default_Int_Wall,         !- Construction Name
    F1_S1,                    !- Zone Name
    ,                         !- Space Name
    Surface,                  !- Outside Boundary Condition
    F1_Corridor_South_Wall_S1,    !- Outside Boundary Condition Object
    NoSun,                    !- Sun Exposure
    NoWind,                   !- Wind Exposure
    autocalculate,            !- View Factor to Ground
    autocalculate,            !- Number of Vertices
    5,                        !- Vertex 1 Xcoordinate
    3,                        !- Vertex 1 Ycoordinate
    3.6,                      !- Vertex 1 Zcoordinate
    5,                        !- Vertex 2 Xcoordinate
    3,                        !- Vertex 2 Ycoordinate
    0,                        !- Vertex 2 Zcoordinate
    0,                        !- Vertex 3 Xcoordinate
    3,                        !- Vertex 3 Ycoordinate
    0,                        !- Vertex 3 Zcoordinate
    0,                        !- Vertex 4 Xcoordinate
    3,                        !- Vertex 4 Ycoordinate
    3.6;                      !- Vertex 4 Zcoordinate

BUILDINGSURFACE:DETAILED,
    F1_S1_Ceiling,            !- Name
    Ceiling,                  !- Surface Type
    Default_Ceiling,          !- Construction Name
    F1_S1,                    !- Zone Name
    ,                         !- Space Name
    Surface,                  !- Outside Boundary Condition
    F2_S1_Floor,              !- Outside Boundary Condition Object
    NoSun,                    !- Sun Exposure
    NoWind,                   !- Wind Exposure
    autocalculate,            !- View Factor to Ground
    autocalculate,            !- Number of Vertices
    0,                        !- Vertex 1 Xcoordinate
    3,                        !- Vertex 1 Ycoordinate
    3.6,                      !- Vertex 1 Zcoordinate
    0,                        !- Vertex 2 Xcoordinate
    0,                        !- Vertex 2 Ycoordinate
    3.6,                      !- Vertex 2 Zcoordinate
    5,                        !- Vertex 3 Xcoordinate
    0,                        !- Vertex 3 Ycoordinate
    3.6,                      !- Vertex 3 Zcoordinate
    5,                        !- Vertex 4 Xcoordinate
    3,                        !- Vertex 4 Ycoordinate
    3.6;                      !- Vertex 4 Zcoordinate

BUILDINGSURFACE:DETAILED,
    F1_S2_West_Wall,          !- Name
    Wall,                     !- Surface Type
    Default_Int_Wall,         !- Construction Name
    F1_S2,                    !- Zone Name
    ,                         !- Space Name
    Surface,                  !- Outside Boundary Condition
    F1_S1_East_Wall,          !- Outside Boundary Condition Object
    NoSun,                    !- Sun Exposure
    NoWind,                   !- Wind Exposure
    autocalculate,            !- View Factor to Ground
    autocalculate,            !- Number of Vertices
    5,                        !- Vertex 1 Xcoordinate
    3,                        !- Vertex 1 Ycoordinate
    3.6,                      !- Vertex 1 Zcoordinate
    5,                        !- Vertex 2 Xcoordinate
    3,                        !- Vertex 2 Ycoordinate
    0,                        !- Vertex 2 Zcoordinate
    5,                        !- Vertex 3 Xcoordinate
    0,                        !- Vertex 3 Ycoordinate
    0,                        !- Vertex 3 Zcoordinate
    5,                        !- Vertex 4 Xcoordinate
    0,                        !- Vertex 4 Ycoordinate
    3.6;                      !- Vertex 4 Zcoordinate

BUILDINGSURFACE:DETAILED,
    F1_S2_South_Wall,         !- Name
    Wall,                     !- Surface Type
    Default_Ext_Wall,         !- Construction Name
    F1_S2,                    !- Zone Name
    ,                         !- Space Name
    Outdoors,                 !- Outside Boundary Condition
    ,                         !- Outside Boundary Condition Object
    SunExposed,               !- Sun Exposure
    WindExposed,              !- Wind Exposure
    autocalculate,            !- View Factor to Ground
    autocalculate,            !- Number of Vertices
    5,                        !- Vertex 1 Xcoordinate