!- Linux Line endings 

VERSION,
    25.1.0;                   !- Version Identifier

SIMULATIONCONTROL,
    No,                       !- Do Zone Sizing Calculation
    No,                       !- Do System Sizing Calculation
    No,                       !- Do Plant Sizing Calculation
    Yes,                      !- Run Simulation for Sizing Periods
    Yes,                      !- Run Simulation for Weather File Run Periods
    Yes,                      !- Do HVAC Sizing Simulation for Sizing Periods
    1;                        !- Maximum Number of HVAC Sizing Simulation Passes

BUILDING,
    smalloffice_21,           !- Name
    0,                        !- North Axis
    Suburbs,                  !- Terrain
    0.04,                     !- Loads Convergence Tolerance Value
    0.4,                      !- Temperature Convergence Tolerance Value
    FullExterior,             !- Solar Distribution
    25,                       !- Maximum Number of Warmup Days
    1;                        !- Minimum Number of Warmup Days

SITE:LOCATION,
    Shenzhen_CN,              !- Name
    22.5431,                  !- Latitude
    114.0579,                 !- Longitude
    8,                        !- Time Zone
    0;                        !- Elevation

RUNPERIOD,
    Default Run Period,       !- Name
    1,                        !- Begin Month
    1,                        !- Begin Day of Month
    ,                         !- Begin Year
    12,                       !- End Month
    31,                       !- End Day of Month
    ,                         !- End Year
    ,                         !- Day of Week for Start Day
    Yes,                      !- Use Weather File Holidays and Special Days
    Yes,                      !- Use Weather File Daylight Saving Period
    No,                       !- Apply Weekend Holiday Rule
    Yes,                      !- Use Weather File Rain Indicators
    Yes,                      !- Use Weather File Snow Indicators
    No,                       !- Treat Weather as Actual
    Hour24;                   !- First Hour Interpolation Starting Values

SCHEDULETYPELIMITS,
    Fraction,                 !- Name
    0,                        !- Lower Limit Value
    1,                        !- Upper Limit Value
    CONTINUOUS,               !- Numeric Type
    Dimensionless;            !- Unit Type

SCHEDULETYPELIMITS,
    Temperature,              !- Name
    -100,                     !- Lower Limit Value
    100,                      !- Upper Limit Value
    CONTINUOUS,               !- Numeric Type
    Temperature;              !- Unit Type

SCHEDULETYPELIMITS,
    ActivityLevel,            !- Name
    0,                        !- Lower Limit Value
    1000,                     !- Upper Limit Value
    CONTINUOUS,               !- Numeric Type
    Dimensionless;            !- Unit Type

SCHEDULETYPELIMITS,
    OnOff,                    !- Name
    0,                        !- Lower Limit Value
    1,                        !- Upper Limit Value
    DISCRETE,                 !- Numeric Type
    Dimensionless;            !- Unit Type

SCHEDULE:COMPACT,
    Schedule_Office_Occupancy,    !- Name
    Fraction,                 !- Schedule Type Limits Name
    Through: 12/31,           !- Field 1
    For: Weekdays,            !- Field 2
    Until: 08:00, 0.0,        !- Field 3
    Until: 09:00, 0.2,        !- Field 4
    Until: 12:00, 0.9,        !- Field 5
    Until: 13:00, 0.5,        !- Field 6
    Until: 18:00, 0.9,        !- Field 7
    Until: 19:00, 0.3,        !- Field 8
    Until: 24:00, 0.0,        !- Field 9
    For: AllOtherDays,        !- Field 10
    Until: 24:00, 0.0;        !- Field 11

SCHEDULE:COMPACT,
    Schedule_Office_Lighting,    !- Name
    Fraction,                 !- Schedule Type Limits Name
    Through: 12/31,           !- Field 1
    For: Weekdays,            !- Field 2
    Until: 08:00, 0.1,        !- Field 3
    Until: 09:00, 0.5,        !- Field 4
    Until: 12:00, 0.9,        !- Field 5
    Until: 13:00, 0.7,        !- Field 6
    Until: 18:00, 0.9,        !- Field 7
    Until: 19:00, 0.5,        !- Field 8
    Until: 24:00, 0.1,        !- Field 9
    For: AllOtherDays,        !- Field 10
    Until: 24:00, 0.1;        !- Field 11

SCHEDULE:COMPACT,
    Schedule_Office_Equipment,    !- Name
    Fraction,                 !- Schedule Type Limits Name
    Through: 12/31,           !- Field 1
    For: Weekdays,            !- Field 2
    Until: 08:00, 0.1,        !- Field 3
    Until: 09:00, 0.3,        !- Field 4
    Until: 12:00, 0.7,        !- Field 5
    Until: 13:00, 0.5,        !- Field 6
    Until: 18:00, 0.7,        !- Field 7
    Until: 19:00, 0.3,        !- Field 8
    Until: 24:00, 0.1,        !- Field 9
    For: AllOtherDays,        !- Field 10
    Until: 24:00, 0.1;        !- Field 11

SCHEDULE:COMPACT,
    Schedule_Office_Activity,    !- Name
    ActivityLevel,            !- Schedule Type Limits Name
    Through: 12/31,           !- Field 1
    For: AllDays,             !- Field 2
    Until: 24:00, 120.0;      !- Field 3

SCHEDULE:COMPACT,
    Schedule_Office_HVAC_Avail,    !- Name
    OnOff,                    !- Schedule Type Limits Name
    Through: 12/31,           !- Field 1
    For: Weekdays,            !- Field 2
    Until: 06:00, 0.0,        !- Field 3
    Until: 20:00, 1.0,        !- Field 4
    Until: 24:00, 0.0,        !- Field 5
    For: AllOtherDays,        !- Field 6
    Until: 24:00, 0.0;        !- Field 7

SCHEDULE:COMPACT,
    Schedule_Office_Heating_Setpoint,    !- Name
    Temperature,              !- Schedule Type Limits Name
    Through: 12/31,           !- Field 1
    For: Weekdays,            !- Field 2
    Until: 06:00, 15.0,       !- Field 3
    Until: 20:00, 20.0,       !- Field 4
    Until: 24:00, 15.0,       !- Field 5
    For: AllOtherDays,        !- Field 6
    Until: 24:00, 15.0;       !- Field 7

SCHEDULE:COMPACT,
    Schedule_Office_Cooling_Setpoint,    !- Name
    Temperature,              !- Schedule Type Limits Name
    Through: 12/31,           !- Field 1
    For: Weekdays,            !- Field 2
    Until: 06:00, 30.0,       !- Field 3
    Until: 20:00, 24.0,       !- Field 4
    Until: 24:00, 30.0,       !- Field 5
    For: AllOtherDays,        !- Field 6
    Until: 24:00, 30.0;       !- Field 7

MATERIAL:NOMASS,
    Mat_Stucco,               !- Name
    MediumRough,              !- Roughness
    0.08,                     !- Thermal Resistance
    0.9,                      !- Thermal Absorptance
    0.7,                      !- Solar Absorptance
    0.7;                      !- Visible Absorptance

MATERIAL:NOMASS,
    Mat_Insulation_Batt,      !- Name
    MediumRough,              !- Roughness
    2,                        !- Thermal Resistance
    0.9,                      !- Thermal Absorptance
    0.7,                      !- Solar Absorptance
    0.7;                      !- Visible Absorptance

MATERIAL:NOMASS,
    Mat_Gypsum_Board,         !- Name
    MediumRough,              !- Roughness
    0.08,                     !- Thermal Resistance
    0.9,                      !- Thermal Absorptance
    0.7,                      !- Solar Absorptance
    0.7;                      !- Visible Absorptance

MATERIAL:NOMASS,
    Mat_Concrete_Slab,        !- Name
    MediumRough,              !- Roughness
    0.15,                     !- Thermal Resistance
    0.9,                      !- Thermal Absorptance
    0.7,                      !- Solar Absorptance
    0.7;                      !- Visible Absorptance

MATERIAL:NOMASS,
    Mat_Roof_Membrane,        !- Name
    MediumRough,              !- Roughness
    0.05,                     !- Thermal Resistance
    0.9,                      !- Thermal Absorptance
    0.7,                      !- Solar Absorptance
    0.7;                      !- Visible Absorptance

MATERIAL:NOMASS,
    Mat_Roof_Insulation,      !- Name
    MediumRough,              !- Roughness
    3,                        !- Thermal Resistance
    0.9,                      !- Thermal Absorptance
    0.7,                      !- Solar Absorptance
    0.7;                      !- Visible Absorptance

WINDOWMATERIAL:SIMPLEGLAZINGSYSTEM,
    Mat_Glazing_Double_LowE,    !- Name
    2.5,                      !- UFactor
    0.4,                      !- Solar Heat Gain Coefficient
    0.6;                      !- Visible Transmittance

CONSTRUCTION,
    Default_Ext_Wall,         !- Name
    Mat_Stucco,               !- Outside Layer
    Mat_Insulation_Batt,      !- Layer 2
    Mat_Gypsum_Board;         !- Layer 3

CONSTRUCTION,
    Default_Int_Wall,         !- Name
    Mat_Gypsum_Board,         !- Outside Layer
    Mat_Insulation_Batt,      !- Layer 2
    Mat_Gypsum_Board;         !- Layer 3

CONSTRUCTION,
    Default_GroundFloor,      !- Name
    Mat_Concrete_Slab;        !- Outside Layer

CONSTRUCTION,
    Default_Roof,             !- Name
    Mat_Roof_Membrane,        !- Outside Layer
    Mat_Roof_Insulation,      !- Layer 2
    Mat_Concrete_Slab;        !- Layer 3

CONSTRUCTION,
    Cons_InterFloor,          !- Name
    Mat_Concrete_Slab,        !- Outside Layer
    Mat_Gypsum_Board;         !- Layer 2

CONSTRUCTION,
    Default_Window,           !- Name
    Mat_Glazing_Double_LowE;    !- Outside Layer

GLOBALGEOMETRYRULES,
    UpperLeftCorner,          !- Starting Vertex Position
    Counterclockwise,         !- Vertex Entry Direction
    World,                    !- Coordinate System
    Relative,                 !- Daylighting Reference Point Coordinate System
    Relative;                 !- Rectangular Surface Coordinate System

ZONE,
    F1_R1,                    !- Name
    0,                        !- Direction of Relative North
    0,                        !- X Origin
    5,                        !- Y Origin
    0,                        !- Z Origin
    1,                        !- Type
    1,                        !- Multiplier
    autocalculate,            !- Ceiling Height
    autocalculate,            !- Volume
    autocalculate,            !- Floor Area
    TARP,                     !- Zone Inside Convection Algorithm
    DOE-2,                    !- Zone Outside Convection Algorithm
    Yes;                      !- Part of Total Floor Area

ZONE,
    F1_R2,                    !- Name
    0,                        !- Direction of Relative North
    4.925,                    !- X Origin
    5,                        !- Y Origin
    0,                        !- Z Origin
    1,                        !- Type
    1,                        !- Multiplier
    autocalculate,            !- Ceiling Height
    autocalculate,            !- Volume
    autocalculate,            !- Floor Area
    TARP,                     !- Zone Inside Convection Algorithm
    DOE-2,                    !- Zone Outside Convection Algorithm
    Yes;                      !- Part of Total Floor Area

ZONE,
    F1_R3,                    !- Name
    0,                        !- Direction of Relative North
    10.075,                   !- X Origin
    5,                        !- Y Origin
    0,                        !- Z Origin
    1,                        !- Type
    1,                        !- Multiplier
    autocalculate,            !- Ceiling Height
    autocalculate,            !- Volume
    autocalculate,            !- Floor Area
    TARP,                     !- Zone Inside Convection Algorithm
    DOE-2,                    !- Zone Outside Convection Algorithm
    Yes;                      !- Part of Total Floor Area

ZONE,
    F1_R4,                    !- Name
    0,                        !- Direction of Relative North
    0,                        !- X Origin
    0,                        !- Y Origin
    0,                        !- Z Origin
    1,                        !- Type
    1,                        !- Multiplier
    autocalculate,            !- Ceiling Height
    autocalculate,            !- Volume
    autocalculate,            !- Floor Area
    TARP,                     !- Zone Inside Convection Algorithm
    DOE-2,                    !- Zone Outside Convection Algorithm
    Yes;                      !- Part of Total Floor Area

ZONE,
    F1_R5,                    !- Name
    0,                        !- Direction of Relative North
    4.925,                    !- X Origin
    0,                        !- Y Origin
    0,                        !- Z Origin
    1,                        !- Type
    1,                        !- Multiplier
    autocalculate,            !- Ceiling Height
    autocalculate,            !- Volume
    autocalculate,            !- Floor Area
    TARP,                     !- Zone Inside Convection Algorithm
    DOE-2,                    !- Zone Outside Convection Algorithm
    Yes;                      !- Part of Total Floor Area

ZONE,
    F1_R6,                    !- Name
    0,                        !- Direction of Relative North
    10.075,                   !- X Origin
    0,                        !- Y Origin
    0,                        !- Z Origin
    1,                        !- Type
    1,                        !- Multiplier
    autocalculate,            !- Ceiling Height
    autocalculate,            !- Volume
    autocalculate,            !- Floor Area
    TARP,                     !- Zone Inside Convection Algorithm
    DOE-2,                    !- Zone Outside Convection Algorithm
    Yes;                      !- Part of Total Floor Area

ZONE,
    F1_R7,                    !- Name
    0,                        !- Direction of Relative North
    0,                        !- X Origin
    3,                        !- Y Origin
    0,                        !- Z Origin
    1,                        !- Type
    1,                        !- Multiplier
    autocalculate,            !- Ceiling Height
    autocalculate,            !- Volume
    autocalculate,            !- Floor Area
    TARP,                     !- Zone Inside Convection Algorithm
    DOE-2,                    !- Zone Outside Convection Algorithm
    Yes;                      !- Part of Total Floor Area

ZONE,
    F2_R1,                    !- Name
    0,                        !- Direction of Relative North
    0,                        !- X Origin
    5,                        !- Y Origin
    3,                        !- Z Origin
    1,                        !- Type
    1,                        !- Multiplier
    autocalculate,            !- Ceiling Height
    autocalculate,            !- Volume
    autocalculate,            !- Floor Area
    TARP,                     !- Zone Inside Convection Algorithm
    DOE-2,                    !- Zone Outside Convection Algorithm
    Yes;                      !- Part of Total Floor Area

ZONE,
    F2_R2,                    !- Name
    0,                        !- Direction of Relative North
    7.5,                      !- X Origin
    5,                        !- Y Origin
    3,                        !- Z Origin
    1,                        !- Type
    1,                        !- Multiplier
    autocalculate,            !- Ceiling Height
    autocalculate,            !- Volume
    autocalculate,            !- Floor Area
    TARP,                     !- Zone Inside Convection Algorithm
    DOE-2,                    !- Zone Outside Convection Algorithm
    Yes;                      !- Part of Total Floor Area

ZONE,
    F2_R3,                    !- Name
    0,                        !- Direction of Relative North
    0,                        !- X Origin
    0,                        !- Y Origin
    3,                        !- Z Origin
    1,                        !- Type
    1,                        !- Multiplier
    autocalculate,            !- Ceiling Height
    autocalculate,            !- Volume
    autocalculate,            !- Floor Area
    TARP,                     !- Zone Inside Convection Algorithm
    DOE-2,                    !- Zone Outside Convection Algorithm
    Yes;                      !- Part of Total Floor Area

ZONE,
    F2_R4,                    !- Name
    0,                        !- Direction of Relative North
    4.925,                    !- X Origin
    0,                        !- Y Origin
    3,                        !- Z Origin
    1,                        !- Type
    1,                        !- Multiplier
    autocalculate,            !- Ceiling Height
    autocalculate,            !- Volume
    autocalculate,            !- Floor Area
    TARP,                     !- Zone Inside Convection Algorithm
    DOE-2,                    !- Zone Outside Convection Algorithm
    Yes;                      !- Part of Total Floor Area

ZONE,
    F2_R6,                    !- Name
    0,                        !- Direction of Relative North
    10.075,                   !- X Origin
    0,                        !- Y Origin
    3,                        !- Z Origin
    1,                        !- Type
    1,                        !- Multiplier
    autocalculate,            !- Ceiling Height
    autocalculate,            !- Volume
    autocalculate,            !- Floor Area
    TARP,                     !- Zone Inside Convection Algorithm
    DOE-2,                    !- Zone Outside Convection Algorithm
    Yes;                      !- Part of Total Floor Area

ZONE,
    F2_R5,                    !- Name
    0,                        !- Direction of Relative North
    7.5,                      !- X Origin
    0,                        !- Y Origin
    3,                        !- Z Origin
    1,                        !- Type
    1,                        !- Multiplier
    autocalculate,            !- Ceiling Height
    autocalculate,            !- Volume
    autocalculate,            !- Floor Area
    TARP,                     !- Zone Inside Convection Algorithm
    DOE-2,                    !- Zone Outside Convection Algorithm
    Yes;                      !- Part of Total Floor Area

ZONE,
    F2_R7,                    !- Name
    0,                        !- Direction of Relative North
    0,                        !- X Origin
    3,                        !- Y Origin
    3,                        !- Z Origin
    1,                        !- Type
    1,                        !- Multiplier
    autocalculate,            !- Ceiling Height
    autocalculate,            !- Volume
    autocalculate,            !- Floor Area
    TARP,                     !- Zone Inside Convection Algorithm
    DOE-2,                    !- Zone Outside Convection Algorithm
    Yes;                      !- Part of Total Floor Area

BUILDINGSURFACE:DETAILED,
    Wall_South_F1_R1,         !- Name
    Wall,                     !- Surface Type
    Default_Int_Wall,         !- Construction Name
    F1_R1,                    !- Zone Name
    ,                         !- Space Name
    Zone,                     !- Outside Boundary Condition
    Wall_North_F1_R7_R1,      !- Outside Boundary Condition Object
    NoSun,                    !- Sun Exposure
    NoWind,                   !- Wind Exposure
    autocalculate,            !- View Factor to Ground
    autocalculate,            !- Number of Vertices
    0,                        !- Vertex 1 Xcoordinate
    5,                        !- Vertex 1 Ycoordinate
    3,                        !- Vertex 1 Zcoordinate
    0,                        !- Vertex 2 Xcoordinate
    5,                        !- Vertex 2 Ycoordinate
    0,                        !- Vertex 2 Zcoordinate
    4.925,                    !- Vertex 3 Xcoordinate
    5,                        !- Vertex 3 Ycoordinate
    0,                        !- Vertex 3 Zcoordinate
    4.925,                    !- Vertex 4 Xcoordinate
    5,                        !- Vertex 4 Ycoordinate
    3;                        !- Vertex 4 Zcoordinate

BUILDINGSURFACE:DETAILED,
    Wall_East_F1_R1,          !- Name
    Wall,                     !- Surface Type
    Default_Int_Wall,         !- Construction Name
    F1_R1,                    !- Zone Name
    ,                         !- Space Name
    Zone,                     !- Outside Boundary Condition
    Wall_West_F1_R2,          !- Outside Boundary Condition Object
    NoSun,                    !- Sun Exposure
    NoWind,                   !- Wind Exposure
    autocalculate,            !- View Factor to Ground
    autocalculate,            !- Number of Vertices
    4.925,                    !- Vertex 1 Xcoordinate
    5,                        !- Vertex 1 Ycoordinate
    3,                        !- Vertex 1 Zcoordinate
    4.925,                    !- Vertex 2 Xcoordinate
    5,                        !- Vertex 2 Ycoordinate
    0,                        !- Vertex 2 Zcoordinate
    4.925,                    !- Vertex 3 Xcoordinate
    8,                        !- Vertex 3 Ycoordinate
    0,                        !- Vertex 3 Zcoordinate
    4.925,                    !- Vertex 4 Xcoordinate
    8,                        !- Vertex 4 Ycoordinate
    3;                        !- Vertex 4 Zcoordinate

BUILDINGSURFACE:DETAILED,
    Wall_North_F1_R1,         !- Name
    Wall,                     !- Surface Type
    Default_Ext_Wall,         !- Construction Name
    F1_R1,                    !- Zone Name
    ,                         !- Space Name
    Outdoors,                 !- Outside Boundary Condition
    ,                         !- Outside Boundary Condition Object
    SunExposed,               !- Sun Exposure
    WindExposed,              !- Wind Exposure
    autocalculate,            !- View Factor to Ground
    autocalculate,            !- Number of Vertices
    4.925,                    !- Vertex 1 Xcoordinate
    8,                        !- Vertex 1 Ycoordinate
    3,                        !- Vertex 1 Zcoordinate
    4.925,                    !- Vertex 2 Xcoordinate
    8,                        !- Vertex 2 Ycoordinate
    0,                        !- Vertex 2 Zcoordinate
    0,                        !- Vertex 3 Xcoordinate
    8,                        !- Vertex 3 Ycoordinate
    0,                        !- Vertex 3 Zcoordinate
    0,                        !- Vertex 4 Xcoordinate
    8,                        !- Vertex 4 Ycoordinate
    3;                        !- Vertex 4 Zcoordinate

BUILDINGSURFACE:DETAILED,
    Wall_West_F1_R1,          !- Name
    Wall,                     !- Surface Type
    Default_Ext_Wall,         !- Construction Name
    F1_R1,                    !- Zone Name
    ,                         !- Space Name
    Outdoors,                 !- Outside Boundary Condition
    ,                         !- Outside Boundary Condition Object
    SunExposed,               !- Sun Exposure
    WindExposed,              !- Wind Exposure
    autocalculate,            !- View Factor to Ground
    autocalculate,            !- Number of Vertices
    0,                        !- Vertex 1 Xcoordinate
    8,                        !- Vertex 1 Ycoordinate
    3,                        !- Vertex 1 Zcoordinate
    0,                        !- Vertex 2 Xcoordinate
    8,                        !- Vertex 2 Ycoordinate
    0,                        !- Vertex 2 Zcoordinate
    0,                        !- Vertex 3 Xcoordinate
    5,                        !- Vertex 3 Ycoordinate
    0,                        !- Vertex 3 Zcoordinate
    0,                        !- Vertex 4 Xcoordinate
    5,                        !- Vertex 4 Ycoordinate
    3;                        !- Vertex 4 Zcoordinate

BUILDINGSURFACE:DETAILED,
    Floor_F1_R1,              !- Name
    Floor,                    !- Surface Type
    Default_GroundFloor,      !- Construction Name
    F1_R1,                    !- Zone Name
    ,                         !- Space Name
    Ground,                   !- Outside Boundary Condition
    ,                         !- Outside Boundary Condition Object
    NoSun,                    !- Sun Exposure
    NoWind,                   !- Wind Exposure
    autocalculate,            !- View Factor to Ground
    autocalculate,            !- Number of Vertices
    0,                        !- Vertex 1 Xcoordinate
    5,                        !- Vertex 1 Ycoordinate
    0,                        !- Vertex 1 Zcoordinate
    0,                        !- Vertex 2 Xcoordinate
    8,                        !- Vertex 2 Ycoordinate
    0,                        !- Vertex 2 Zcoordinate
    4.925,                    !- Vertex 3 Xcoordinate
    8,                        !- Vertex 3 Ycoordinate
    0,                        !- Vertex 3 Zcoordinate
    4.925,                    !- Vertex 4 Xcoordinate
    5,                        !- Vertex 4 Ycoordinate
    0;                        !- Vertex 4 Zcoordinate

BUILDINGSURFACE:DETAILED,
    Ceiling_F1_R1_A,          !- Name
    Ceiling,                  !- Surface Type
    Cons_InterFloor,          !- Construction Name
    F1_R1,                    !- Zone Name
    ,                         !- Space Name
    Surface,                  !- Outside Boundary Condition
    Floor_F2_R1_A,            !- Outside Boundary Condition Object
    NoSun,                    !- Sun Exposure
    NoWind,                   !- Wind Exposure
    autocalculate,            !- View Factor to Ground
    autocalculate,            !- Number of Vertices
    0,                        !- Vertex 1 Xcoordinate
    8,                        !- Vertex 1 Ycoordinate
    3,                        !- Vertex 1 Zcoordinate
    0,                        !- Vertex 2 Xcoordinate
    5,                        !- Vertex 2 Ycoordinate
    3,                        !- Vertex 2 Zcoordinate
    4.925,                    !- Vertex 3 Xcoordinate
    5,                        !- Vertex 3 Ycoordinate
    3,                        !- Vertex 3 Zcoordinate
    4.925,                    !- Vertex 4 Xcoordinate
    8,                        !- Vertex 4 Ycoordinate
    3;                        !- Vertex 4 Zcoordinate

BUILDINGSURFACE:DETAILED,
    Wall_South_F1_R2,         !- Name
    Wall,                     !- Surface Type
    Default_Int_Wall,         !- Construction Name
    F1_R2,                    !- Zone Name
    ,                         !- Space Name
    Zone,                     !- Outside Boundary Condition
    Wall_North_F1_R7_R2,      !- Outside Boundary Condition Object
    NoSun,                    !- Sun Exposure
    NoWind,                   !- Wind Exposure
    autocalculate,            !- View Factor to Ground
    autocalculate,            !- Number of Vertices
    4.925,                    !- Vertex 1 Xcoordinate
    5,                        !- Vertex 1 Ycoordinate
    3,                        !- Vertex 1 Zcoordinate
    4.925,                    !- Vertex 2 Xcoordinate
    5,                        !- Vertex 2 Ycoordinate
    0,                        !- Vertex 2 Zcoordinate
    10.075,                   !- Vertex 3 Xcoordinate
    5,                        !- Vertex 3 Ycoordinate
    0,                        !- Vertex 3 Zcoordinate
    10.075,                   !- Vertex 4 Xcoordinate
    5,                        !- Vertex 4 Ycoordinate
    3;                        !- Vertex 4 Zcoordinate

BUILDINGSURFACE:DETAILED,
    Wall_East_F1_R2,          !- Name
    Wall,                     !- Surface Type
    Default_Int_Wall,         !- Construction Name
    F1_R2,                    !- Zone Name
    ,                         !- Space Name
    Zone,                     !- Outside Boundary Condition
    Wall_West_F1_R3,          !- Outside Boundary Condition Object
    NoSun,                    !- Sun Exposure
    NoWind,                   !- Wind Exposure
    autocalculate,            !- View Factor to Ground
    autocalculate,            !- Number of Vertices
    10.075,                   !- Vertex 1 Xcoordinate
    5,                        !- Vertex 1 Ycoordinate
    3,                        !- Vertex 1 Zcoordinate
    10.075,                   !- Vertex 2 Xcoordinate
    5,                        !- Vertex 2 Ycoordinate
    0,                        !- Vertex 2 Zcoordinate
    10.075,                   !- Vertex 3 Xcoordinate
    8,                        !- Vertex 3 Ycoordinate
    0,                        !- Vertex 3 Zcoordinate
    10.075,                   !- Vertex 4 Xcoordinate
    8,                        !- Vertex 4 Ycoordinate
    3;                        !- Vertex 4 Zcoordinate

BUILDINGSURFACE:DETAILED,
    Wall_North_F1_R2,         !- Name
    Wall,                     !- Surface Type
    Default_Ext_Wall,         !- Construction Name
    F1_R2,                    !- Zone Name
    ,                         !- Space Name
    Outdoors,                 !- Outside Boundary Condition
    ,                         !- Outside Boundary Condition Object
    SunExposed,               !- Sun Exposure
    WindExposed,              !- Wind Exposure
    autocalculate,            !- View Factor to Ground
    autocalculate,            !- Number of Vertices
    10.075,                   !- Vertex 1 Xcoordinate
    8,                        !- Vertex 1 Ycoordinate
    3,                        !- Vertex 1 Zcoordinate
    10.075,                   !- Vertex 2 Xcoordinate
    8,                        !- Vertex 2 Ycoordinate
    0,                        !- Vertex 2 Zcoordinate
    4.925,                    !- Vertex 3 Xcoordinate
    8,                        !- Vertex 3 Ycoordinate
    0,                        !- Vertex 3 Zcoordinate
    4.925,                    !- Vertex 4 Xcoordinate
    8,                        !- Vertex 4 Ycoordinate
    3;                        !- Vertex 4 Zcoordinate

BUILDINGSURFACE:DETAILED,
    Wall_West_F1_R2,          !- Name
    Wall,                     !- Surface Type
    Default_Int_Wall,         !- Construction Name
    F1_R2,                    !- Zone Name
    ,                         !- Space Name
    Zone,                     !- Outside Boundary Condition
    Wall_East_F1_R1,          !- Outside Boundary Condition Object
    NoSun,                    !- Sun Exposure